case.raw
0,100.0,33,0,1,60.0
GRID OPTIMIZATION COMPETITION CHALLENGE 2
INPUT DATA FILES ARE RAW JSON CON
1,'100132LD',13.8,1,3,1,1,1.01743007,-85.003548,1.12,0.875,1.12,0.875
2,'100159LD',13.8,1,3,1,1,1.01509118,-84.55947,1.12,0.875,1.12,0.875
3,'100160LD',13.8,1,3,1,1,1.03027403,-90.632963,1.12,0.875,1.12,0.875
4,'100163LD',13.8,1,3,1,1,1.03210044,-83.987141,1.12,0.875,1.12,0.875
5,'100168LD',13.8,1,3,1,1,1.01682758,-84.229572,1.12,0.875,1.12,0.875
6,'100169LD',13.8,1,3,1,1,1.03332806,-83.803197,1.12,0.875,1.12,0.875
7,'100177LD',13.8,1,3,1,1,1.03406012,-85.143171,1.12,0.875,1.12,0.875
8,'100183LD',13.8,1,3,1,1,0.99324697,-80.223304,1.12,0.875,1.12,0.875
9,'100217LD',13.8,1,3,1,1,1.01694298,-82.595456,1.12,0.875,1.12,0.875
10,'100225LD',13.8,1,3,1,1,1.00183582,-79.26929,1.12,0.875,1.12,0.875
11,'100230LD',13.8,1,3,1,1,1.00405085,-79.006827,1.12,0.875,1.12,0.875
12,'100231LD',13.8,1,3,1,1,1.00355422,-79.072157,1.12,0.875,1.12,0.875
13,'100240LD',13.8,1,3,1,1,1.00518537,-79.020426,1.12,0.875,1.12,0.875
14,'100251LD',13.8,1,3,1,1,1.00446677,-79.398176,1.12,0.875,1.12,0.875
15,'100257LD',13.8,1,3,1,1,1.01400769,-82.877085,1.12,0.875,1.12,0.875
16,'100268LD',13.8,1,3,1,1,0.9924022,-80.530669,1.12,0.875,1.12,0.875
17,'100272LD',13.8,1,3,1,1,1.01528096,-82.865057,1.12,0.875,1.12,0.875
18,'100273LD',13.8,1,3,1,1,1.00294626,-83.186718,1.12,0.875,1.12,0.875
19,'100274LD',13.8,1,3,1,1,1.01564777,-81.792861,1.12,0.875,1.12,0.875
20,'100280LD',13.8,1,3,1,1,1.00011623,-79.870169,1.12,0.875,1.12,0.875
21,'100282LD',13.8,1,3,1,1,0.99829477,-80.286838,1.12,0.875,1.12,0.875
22,'100287LD',13.8,1,3,1,1,1.00295234,-79.896104,1.12,0.875,1.12,0.875
23,'100290LD',13.8,1,3,1,1,0.99534667,-81.281935,1.12,0.875,1.12,0.875
24,'100293LD',13.8,1,3,1,1,0.99932837,-80.662089,1.12,0.875,1.12,0.875
25,'100297LD',13.8,1,3,1,1,1.0016849,-79.932563,1.12,0.875,1.12,0.875
26,'100304LD',13.8,1,3,1,1,1.00392199,-82.126755,1.12,0.875,1.12,0.875
27,'100307LD',13.8,1,3,1,1,1.02191389,-85.684764,1.12,0.875,1.12,0.875
28,'100310LD',13.8,1,3,1,1,1.00473917,-82.467089,1.12,0.875,1.12,0.875
29,'100313LD',13.8,1,3,1,1,1.03184283,-86.244396,1.12,0.875,1.12,0.875
30,'100331LD',13.8,1,3,1,1,1.0092355,-84.550379,1.12,0.875,1.12,0.875
31,'100333LD',13.8,1,3,1,1,1.00036192,-81.601151,1.12,0.875,1.12,0.875
32,'100336LD',13.8,1,3,1,1,1.01103616,-82.126625,1.12,0.875,1.12,0.875
33,'100349LD',13.8,1,3,1,1,1.01823449,-84.392117,1.12,0.875,1.12,0.875
34,'100351LD',13.8,1,3,1,1,1.01540041,-84.761131,1.12,0.875,1.12,0.875
35,'100383LD',13.8,1,3,1,1,1.01697671,-84.56281,1.12,0.875,1.12,0.875
36,'100394LD',13.8,1,3,1,1,0.98809385,-88.428349,1.12,0.875,1.12,0.875
37,'100399LD',13.8,1,3,1,1,1.01729584,-87.749838,1.12,0.875,1.12,0.875
38,'100421LD',13.8,1,3,1,1,0.98284996,-92.313681,1.12,0.875,1.12,0.875
39,'100424LD',13.8,1,3,1,1,1.00610268,-91.886897,1.12,0.875,1.12,0.875
40,'100428LD',13.8,1,3,1,1,1.00108933,-88.312618,1.12,0.875,1.12,0.875
41,'100430LD',13.8,1,3,1,1,1.00552499,-88.47228,1.12,0.875,1.12,0.875
42,'100441LD',13.8,1,3,1,1,0.99960417,-89.725736,1.12,0.875,1.12,0.875
43,'100453LD',13.8,1,3,1,1,1.00327671,-88.216196,1.12,0.875,1.12,0.875
44,'100489LD',13.8,1,3,1,1,1.01296949,-87.966874,1.12,0.875,1.12,0.875
45,'100509LD',13.8,1,3,1,1,1.02637625,-84.864383,1.12,0.875,1.12,0.875
46,'100553LD',13.8,1,3,1,1,0.99071044,-83.408795,1.12,0.875,1.12,0.875
47,'100555LD',13.8,1,3,1,1,0.99020302,-83.276733,1.12,0.875,1.12,0.875
48,'100565LD',13.8,1,3,1,1,1.0092473,-88.560759,1.12,0.875,1.12,0.875
49,'100572LD',13.8,1,3,1,1,1.05492318,-87.779904,1.12,0.875,1.12,0.875
50,'100602LD',13.8,1,3,1,1,1.00562537,-92.37824,1.12,0.875,1.12,0.875
51,'100605LD',13.8,1,3,1,1,1.00260997,-87.560553,1.12,0.875,1.12,0.875
52,'100609LD',13.8,1,3,1,1,1.01949775,-84.289541,1.12,0.875,1.12,0.875
53,'100615LD',13.8,1,3,1,1,1.01968992,-84.821401,1.12,0.875,1.12,0.875
54,'100620LD',13.8,1,3,1,1,1.00681031,-86.853232,1.12,0.875,1.12,0.875
55,'100637LD',13.8,1,3,1,1,1.01272976,-85.192369,1.12,0.875,1.12,0.875
56,'100647LD',13.8,1,3,1,1,1.01760495,-79.883925,1.12,0.875,1.12,0.875
57,'100654LD',13.8,1,3,1,1,0.99451774,-80.998414,1.12,0.875,1.12,0.875
58,'100680LD',13.8,1,3,1,1,0.99808693,-80.906815,1.12,0.875,1.12,0.875
59,'100682LD',13.8,1,3,1,1,1.00015628,-81.064503,1.12,0.875,1.12,0.875
60,'100683LD',13.8,1,3,1,1,0.99202031,-81.743397,1.12,0.875,1.12,0.875
61,'100701LD',13.8,1,3,1,1,0.99689549,-80.414863,1.12,0.875,1.12,0.875
62,'100704LD',13.8,1,3,1,1,0.99565041,-80.803515,1.12,0.875,1.12,0.875
63,'100733LD',13.8,1,3,1,1,1.00992656,-85.337681,1.12,0.875,1.12,0.875
64,'100746LD',13.8,1,3,1,1,1.00830615,-86.017463,1.12,0.875,1.12,0.875
65,'100755LD',13.8,1,3,1,1,0.9976837,-87.086216,1.12,0.875,1.12,0.875
66,'100757LD',13.8,1,3,1,1,0.98169756,-83.056801,1.12,0.875,1.12,0.875
67,'100765LD',13.8,1,3,1,1,1.01288104,-83.891648,1.12,0.875,1.12,0.875
68,'100775LD',13.8,1,3,1,1,1.01750171,-85.575618,1.12,0.875,1.12,0.875
69,'100794LD',13.8,1,3,1,1,1.01426578,-84.058564,1.12,0.875,1.12,0.875
70,'100797LD',13.8,1,3,1,1,1.02052355,-86.015441,1.12,0.875,1.12,0.875
71,'100824LD',13.8,1,3,1,1,1.00816596,-83.324032,1.12,0.875,1.12,0.875
72,'100828LD',13.8,1,3,1,1,1.01111042,-86.577654,1.12,0.875,1.12,0.875
73,'100852LD',13.8,1,3,1,1,1.00920284,-77.040586,1.12,0.875,1.12,0.875
74,'100853LD',13.8,1,3,1,1,1.01032197,-76.667453,1.12,0.875,1.12,0.875
75,'100860LD',13.8,1,3,1,1,1.02769589,-79.011335,1.12,0.875,1.12,0.875
76,'100863LD',13.8,1,3,1,1,1.02444804,-78.831031,1.12,0.875,1.12,0.875
77,'100867LD',13.8,1,3,1,1,0.99959201,-83.069177,1.12,0.875,1.12,0.875
78,'100868LD',13.8,1,3,1,1,1.0301162,-78.568137,1.12,0.875,1.12,0.875
79,'100898LD',13.8,1,3,1,1,1.02530169,-80.330067,1.12,0.875,1.12,0.875
80,'100901LD',13.8,1,3,1,1,1.02714813,-79.482297,1.12,0.875,1.12,0.875
81,'100902LD',13.8,1,3,1,1,1.02683604,-78.355602,1.12,0.875,1.12,0.875
82,'100930LD',13.8,1,3,1,1,1.04544938,-82.938147,1.12,0.875,1.12,0.875
83,'100935LD',13.8,1,3,1,1,1.00125837,-89.984286,1.12,0.875,1.12,0.875
84,'100951LD',13.8,1,3,1,1,1.01049232,-80.397938,1.12,0.875,1.12,0.875
85,'100962LD',13.8,1,14,4,1,0.98890197,-90.255219,1.12,0.875,1.12,0.875
86,'100966LD',13.8,1,14,4,1,0.99550527,-89.400763,1.12,0.875,1.12,0.875
87,'100970LD',13.8,1,14,4,1,0.97908849,-87.144232,1.12,0.875,1.12,0.875
88,'100978LD',13.8,1,14,4,1,0.97467279,-87.439904,1.12,0.875,1.12,0.875
89,'100981LD',13.8,1,14,4,1,0.99661368,-89.802036,1.12,0.875,1.12,0.875
90,'100991LD',13.8,1,14,4,1,1.03207862,-62.874091,1.12,0.875,1.12,0.875
91,'101001LD',13.8,1,14,4,1,1.02708149,-66.043442,1.12,0.875,1.12,0.875
92,'101002LD',13.8,1,14,4,1,1.01770163,-70.40921,1.12,0.875,1.12,0.875
93,'101003LD',13.8,1,14,4,1,0.99663228,-64.47883,1.12,0.875,1.12,0.875
94,'101015LD',13.8,1,14,4,1,0.99968535,-87.744059,1.12,0.875,1.12,0.875
95,'101021LD',13.8,1,14,4,1,0.99994355,-87.622175,1.12,0.875,1.12,0.875
96,'101027LD',13.8,1,14,4,1,1.00131929,-87.23228,1.12,0.875,1.12,0.875
97,'101030LD',13.8,1,14,4,1,0.98125601,-85.320947,1.12,0.875,1.12,0.875
98,'101039LD',13.8,1,14,4,1,1.01090896,-92.139061,1.12,0.875,1.12,0.875
99,'101040LD',13.8,1,14,4,1,0.96118432,-92.306291,1.12,0.875,1.12,0.875
100,'101047LD',13.8,1,14,4,1,0.99484575,-84.470855,1.12,0.875,1.12,0.875
101,'101057LD',13.8,1,14,4,1,0.9877218,-86.211925,1.12,0.875,1.12,0.875
102,'101062LD',13.8,1,14,4,1,0.96581125,-87.998504,1.12,0.875,1.12,0.875
103,'101066LD',13.8,1,14,4,1,0.98443812,-90.434122,1.12,0.875,1.12,0.875
104,'101070LD',13.8,1,14,4,1,0.95973188,-91.728423,1.12,0.875,1.12,0.875
105,'101077LD',13.8,1,14,4,1,1.00472176,-88.44511,1.12,0.875,1.12,0.875
106,'101085LD',13.8,1,14,4,1,0.97632301,-90.128376,1.12,0.875,1.12,0.875
107,'101100LD',13.8,1,14,4,1,1.00059319,-79.245105,1.12,0.875,1.12,0.875
108,'101104LD',13.8,1,14,4,1,1.00573492,-80.60296,1.12,0.875,1.12,0.875
109,'101117LD',13.8,1,14,4,1,0.9805733,-90.644219,1.12,0.875,1.12,0.875
110,'101136LD',13.8,1,14,4,1,0.96583617,-81.190903,1.12,0.875,1.12,0.875
111,'101139LD',13.8,1,14,4,1,0.96501505,-81.48762,1.12,0.875,1.12,0.875
112,'101140LD',13.8,1,14,4,1,0.96087545,-83.16437,1.12,0.875,1.12,0.875
113,'101146LD',13.8,1,14,4,1,0.9575249,-84.365875,1.12,0.875,1.12,0.875
114,'101147LD',13.8,1,14,4,1,0.96051431,-83.49493,1.12,0.875,1.12,0.875
115,'101150LD',13.8,1,14,4,1,0.98131424,-85.157371,1.12,0.875,1.12,0.875
116,'101151LD',13.8,1,14,4,1,0.96458054,-83.849363,1.12,0.875,1.12,0.875
117,'101153LD',13.8,1,14,4,1,0.96121961,-84.730204,1.12,0.875,1.12,0.875
118,'101154LD',13.8,1,14,4,1,0.98335475,-85.365282,1.12,0.875,1.12,0.875
119,'101159LD',13.8,1,14,4,1,0.98182267,-86.154818,1.12,0.875,1.12,0.875
120,'101173LD',13.8,1,14,4,1,0.97730953,-77.401022,1.12,0.875,1.12,0.875
121,'101174LD',13.8,1,14,4,1,0.99861354,-75.169005,1.12,0.875,1.12,0.875
122,'101180LD',13.8,1,14,4,1,0.99659353,-79.486825,1.12,0.875,1.12,0.875
123,'101187LD',13.8,1,14,4,1,0.99647415,-76.959006,1.12,0.875,1.12,0.875
124,'101188LD',13.8,1,14,4,1,0.9672417,-82.744552,1.12,0.875,1.12,0.875
125,'101192LD',13.8,1,14,4,1,0.98276943,-76.470914,1.12,0.875,1.12,0.875
126,'101195LD',13.8,1,14,4,1,0.99696314,-78.681983,1.12,0.875,1.12,0.875
127,'101213LD',13.8,1,14,4,1,1.00284207,-62.512507,1.12,0.875,1.12,0.875
128,'101228LD',13.8,1,14,4,1,0.99203712,-88.72579,1.12,0.875,1.12,0.875
129,'101231LD',13.8,1,14,4,1,0.984905,-85.866352,1.12,0.875,1.12,0.875
130,'101246LD',13.8,1,14,4,1,0.96613044,-75.905436,1.12,0.875,1.12,0.875
131,'101248LD',13.8,1,14,4,1,0.98292691,-79.372638,1.12,0.875,1.12,0.875
132,'101254LD',13.8,1,14,4,1,0.97321337,-79.735601,1.12,0.875,1.12,0.875
133,'101278LD',13.8,1,14,4,1,1.00642622,-85.787798,1.12,0.875,1.12,0.875
134,'101283LD',13.8,1,14,4,1,1.0069989,-88.013824,1.12,0.875,1.12,0.875
135,'101300LD',13.8,1,14,4,1,1.01571739,-87.617619,1.12,0.875,1.12,0.875
136,'101302LD',13.8,1,14,4,1,0.97282678,-91.469074,1.12,0.875,1.12,0.875
137,'101303LD',13.8,1,14,4,1,1.05152988,-91.36018,1.12,0.875,1.12,0.875
138,'101307LD',13.8,1,14,4,1,1.00388908,-85.609024,1.12,0.875,1.12,0.875
139,'101310LD',13.8,1,14,4,1,0.99393153,-88.242199,1.12,0.875,1.12,0.875
140,'101348LD',13.8,1,16,3,1,1.00316429,-89.549838,1.12,0.875,1.12,0.875
141,'101353LD',13.8,1,16,3,1,1.00467324,-93.325799,1.12,0.875,1.12,0.875
142,'101369LD',13.8,1,16,1,1,0.99911791,-85.081365,1.12,0.875,1.12,0.875
143,'101375LD',13.8,1,16,1,1,0.99993616,-85.056571,1.12,0.875,1.12,0.875
144,'101377LD',13.8,1,16,1,1,0.99329901,-89.001087,1.12,0.875,1.12,0.875
145,'101388LD',13.8,1,16,2,1,0.99914169,-90.858359,1.12,0.875,1.12,0.875
146,'101392LD',13.8,1,16,1,1,0.99645609,-93.028112,1.12,0.875,1.12,0.875
147,'101405LD',13.8,1,16,1,1,0.98895025,-98.491977,1.12,0.875,1.12,0.875
148,'101417LD',13.8,1,16,3,1,1.01232123,-89.949309,1.12,0.875,1.12,0.875
149,'101418LD',13.8,1,16,3,1,0.99937743,-86.081735,1.12,0.875,1.12,0.875
150,'101419LD',13.8,1,16,3,1,1.00476885,-87.218749,1.12,0.875,1.12,0.875
151,'101422LD',13.8,1,16,3,1,1.00205135,-85.369414,1.12,0.875,1.12,0.875
152,'101423LD',13.8,1,16,3,1,1.00376225,-85.416058,1.12,0.875,1.12,0.875
153,'101426LD',13.8,1,16,3,1,1.00174928,-89.915957,1.12,0.875,1.12,0.875
154,'101430LD',13.8,1,16,3,1,1.00943029,-89.003731,1.12,0.875,1.12,0.875
155,'101432LD',13.8,1,16,3,1,1.0163703,-88.749402,1.12,0.875,1.12,0.875
156,'101438LD',13.8,1,16,3,1,1.00478375,-93.751798,1.12,0.875,1.12,0.875
157,'101440LD',13.8,1,16,3,1,1.01597917,-85.343057,1.12,0.875,1.12,0.875
158,'101441LD',13.8,1,16,3,1,1.00465119,-87.516867,1.12,0.875,1.12,0.875
159,'101446LD',13.8,1,16,3,1,1.01790524,-87.757248,1.12,0.875,1.12,0.875
160,'101448LD',13.8,1,16,3,1,1.01284885,-84.962704,1.12,0.875,1.12,0.875
161,'101450LD',13.8,1,16,3,1,1.00279379,-87.501198,1.12,0.875,1.12,0.875
162,'101452LD',13.8,1,16,3,1,0.99180788,-85.131935,1.12,0.875,1.12,0.875
163,'101453LD',13.8,1,16,3,1,1.01218164,-86.896617,1.12,0.875,1.12,0.875
164,'101457LD',13.8,1,16,3,1,0.98387611,-87.185138,1.12,0.875,1.12,0.875
165,'101460LD',13.8,1,16,3,1,1.0068897,-90.572488,1.12,0.875,1.12,0.875
166,'101482LD',13.8,1,16,3,1,0.99037665,-85.840096,1.12,0.875,1.12,0.875
167,'101488LD',13.8,1,16,3,1,0.9863773,-93.110061,1.12,0.875,1.12,0.875
168,'101519LD',13.8,1,16,3,1,0.99537754,-92.689383,1.12,0.875,1.12,0.875
169,'101526LD',13.8,1,16,3,1,1.00057483,-89.125192,1.12,0.875,1.12,0.875
170,'101574LD',13.8,1,16,3,1,1.00500441,-89.259562,1.12,0.875,1.12,0.875
171,'101576LD',13.8,1,16,3,1,0.99360728,-87.506396,1.12,0.875,1.12,0.875
172,'101578LD',13.8,1,16,3,1,1.02218461,-89.491591,1.12,0.875,1.12,0.875
173,'101585LD',13.8,1,16,4,1,0.97499287,-96.155444,1.12,0.875,1.12,0.875
174,'101591LD',13.8,1,16,4,1,0.99049288,-92.573153,1.12,0.875,1.12,0.875
175,'101595LD',13.8,1,16,4,1,0.97772956,-93.709506,1.12,0.875,1.12,0.875
176,'101598LD',13.8,1,16,4,1,1.00970113,-86.78381,1.12,0.875,1.12,0.875
177,'101601LD',13.8,1,16,4,1,1.00506639,-86.939818,1.12,0.875,1.12,0.875
178,'101632LD',13.8,1,16,4,1,1.01440263,-87.59318,1.12,0.875,1.12,0.875
179,'101639LD',13.8,1,16,4,1,1.01413381,-89.423166,1.12,0.875,1.12,0.875
180,'101651LD',13.8,1,16,4,1,0.99805635,-86.030433,1.12,0.875,1.12,0.875
181,'101654LD',13.8,1,16,4,1,1.01731431,-86.25253,1.12,0.875,1.12,0.875
182,'101658LD',13.8,1,16,4,1,0.99475765,-90.7715,1.12,0.875,1.12,0.875
183,'101662LD',13.8,1,16,4,1,0.97413057,-92.365693,1.12,0.875,1.12,0.875
184,'101684LD',13.8,1,16,4,1,1.01149178,-86.090566,1.12,0.875,1.12,0.875
185,'101686LD',13.8,1,16,4,1,1.01277852,-85.77577,1.12,0.875,1.12,0.875
186,'101688LD',13.8,1,16,4,1,1.0110867,-85.927611,1.12,0.875,1.12,0.875
187,'101689LD',13.8,1,16,4,1,1.00161827,-84.178038,1.12,0.875,1.12,0.875
188,'101699LD',13.8,1,16,2,1,1.01012826,-88.410658,1.12,0.875,1.12,0.875
189,'101700LD',13.8,1,16,2,1,1.0167799,-87.395235,1.12,0.875,1.12,0.875
190,'101701LD',13.8,1,16,2,1,1.00993359,-87.304414,1.12,0.875,1.12,0.875
191,'101703LD',13.8,1,16,2,1,1.00004351,-88.359801,1.12,0.875,1.12,0.875
192,'101708LD',13.8,1,16,2,1,0.99895686,-92.946949,1.12,0.875,1.12,0.875
193,'101748LD',13.8,1,16,1,1,1.01531923,-89.43449,1.12,0.875,1.12,0.875
194,'101759LD',13.8,1,16,1,1,1.01891375,-89.110637,1.12,0.875,1.12,0.875
195,'101764LD',13.8,1,16,1,1,1.00052845,-86.046184,1.12,0.875,1.12,0.875
196,'101766LD',13.8,1,16,1,1,1.00021672,-85.901315,1.12,0.875,1.12,0.875
197,'101770LD',13.8,1,16,1,1,0.99196541,-86.689068,1.12,0.875,1.12,0.875
198,'101780LD',13.8,1,16,1,1,1.0039773,-89.442755,1.12,0.875,1.12,0.875
199,'101781LD',13.8,1,16,1,1,1.00593305,-90.748441,1.12,0.875,1.12,0.875
200,'101783LD',13.8,1,16,1,1,1.0061183,-91.177957,1.12,0.875,1.12,0.875
...
0 / END OF BUS DATA BEGIN LOAD DATA
1,'LV',1,3,1,12.59,3.0,0.0,0.0,0.0,0.0,1,1,0
2,'LV',1,3,1,12.75,3.0,0.0,0.0,0.0,0.0,1,1,0
3,'LV',1,3,1,28.9,7.12,0.0,0.0,0.0,0.0,1,1,0
4,'LV',1,3,1,10.55,4.51,0.0,0.0,0.0,0.0,1,1,0
5,'LV',1,3,1,11.47,2.0,0.0,0.0,0.0,0.0,1,1,0
6,'LV',1,3,1,10.13,4.69,0.0,0.0,0.0,0.0,1,1,0
7,'LV',1,3,1,15.66,6.81,0.0,0.0,0.0,0.0,1,1,0
8,'LV',1,3,1,8.08,3.77,0.0,0.0,0.0,0.0,1,1,0
9,'LV',1,3,1,10.41,4.91,0.0,0.0,0.0,0.0,1,1,0
10,'LV',1,3,1,5.85,3.03,0.0,0.0,0.0,0.0,1,1,0
11,'LV',1,3,1,5.89,2.87,0.0,0.0,0.0,0.0,1,1,0
12,'LV',1,3,1,5.3,2.55,0.0,0.0,0.0,0.0,1,1,0
13,'LV',1,3,1,5.61,2.64,0.0,0.0,0.0,0.0,1,1,0
14,'LV',1,3,1,5.26,2.42,0.0,0.0,0.0,0.0,1,1,0
15,'LV',1,3,1,13.34,7.05,0.0,0.0,0.0,0.0,1,1,0
16,'LV',1,3,1,14.43,6.27,0.0,0.0,0.0,0.0,1,1,0
17,'LV',1,3,1,33.52,15.8,0.0,0.0,0.0,0.0,1,1,0
18,'LV',1,3,1,36.34,18.18,0.0,0.0,0.0,0.0,1,1,0
19,'LV',1,3,1,10.66,5.32,0.0,0.0,0.0,0.0,1,1,0
20,'LV',1,3,1,8.75,4.29,0.0,0.0,0.0,0.0,1,1,0
21,'LV',1,3,1,6.76,3.91,0.0,0.0,0.0,0.0,1,1,0
22,'LV',1,3,1,5.37,2.7,0.0,0.0,0.0,0.0,1,1,0
23,'LV',1,3,1,5.86,2.99,0.0,0.0,0.0,0.0,1,1,0
24,'LV',1,3,1,5.99,2.05,0.0,0.0,0.0,0.0,1,1,0
25,'LV',1,3,1,7.73,3.47,0.0,0.0,0.0,0.0,1,1,0
26,'LV',1,3,1,7.13,3.27,0.0,0.0,0.0,0.0,1,1,0
27,'LV',1,3,1,11.2,5.33,0.0,0.0,0.0,0.0,1,1,0
28,'LV',1,3,1,6.34,3.58,0.0,0.0,0.0,0.0,1,1,0
29,'LV',1,3,1,11.46,5.84,0.0,0.0,0.0,0.0,1,1,0
30,'LV',1,3,1,10.17,5.07,0.0,0.0,0.0,0.0,1,1,0
31,'LV',1,3,1,6.77,3.76,0.0,0.0,0.0,0.0,1,1,0
32,'LV',1,3,1,7.9,3.72,0.0,0.0,0.0,0.0,1,1,0
33,'LV',1,3,1,5.56,2.69,0.0,0.0,0.0,0.0,1,1,0
34,'LV',1,3,1,6.84,3.26,0.0,0.0,0.0,0.0,1,1,0
35,'LV',1,3,1,6.34,3.22,0.0,0.0,0.0,0.0,1,1,0
36,'LV',1,3,1,15.35,4.221,0.0,0.0,0.0,0.0,1,1,0
37,'LV',1,3,1,10.78,4.18,0.0,0.0,0.0,0.0,1,1,0
38,'LV',1,3,1,20.52,5.643,0.0,0.0,0.0,0.0,1,1,0
39,'LV',1,3,1,50.23,23.83,0.0,0.0,0.0,0.0,1,1,0
40,'LV',1,3,1,11.78,5.7,0.0,0.0,0.0,0.0,1,1,0
41,'LV',1,3,1,11.45,6.17,0.0,0.0,0.0,0.0,1,1,0
42,'LV',1,3,1,14.05,7.66,0.0,0.0,0.0,0.0,1,1,0
43,'LV',1,3,1,10.96,4.59,0.0,0.0,0.0,0.0,1,1,0
44,'LV',1,3,1,12.64,5.19,0.0,0.0,0.0,0.0,1,1,0
45,'LV',1,3,1,8.08,4.34,0.0,0.0,0.0,0.0,1,1,0
46,'LV',1,3,1,5.1,2.01,0.0,0.0,0.0,0.0,1,1,0
47,'LV',1,3,1,5.5,3.23,0.0,0.0,0.0,0.0,1,1,0
48,'LV',1,3,1,10.68,4.74,0.0,0.0,0.0,0.0,1,1,0
49,'LV',1,3,1,12.95,6.07,0.0,0.0,0.0,0.0,1,1,0
50,'LV',1,3,1,13.11,3.28,0.0,0.0,0.0,0.0,1,1,0
51,'LV',1,3,1,10.92,5.22,0.0,0.0,0.0,0.0,1,1,0
52,'LV',1,3,1,7.08,3.25,0.0,0.0,0.0,0.0,1,1,0
53,'LV',1,3,1,5.82,2.24,0.0,0.0,0.0,0.0,1,1,0
54,'LV',1,3,1,12.72,5.92,0.0,0.0,0.0,0.0,1,1,0
55,'LV',1,3,1,10.51,4.23,0.0,0.0,0.0,0.0,1,1,0
56,'LV',1,3,1,7.96,3.56,0.0,0.0,0.0,0.0,1,1,0
57,'LV',1,3,1,6.83,3.19,0.0,0.0,0.0,0.0,1,1,0
58,'LV',1,3,1,6.14,3.35,0.0,0.0,0.0,0.0,1,1,0
59,'LV',1,3,1,7.32,2.74,0.0,0.0,0.0,0.0,1,1,0
60,'LV',1,3,1,10.98,4.87,0.0,0.0,0.0,0.0,1,1,0
61,'LV',1,3,1,8.41,4.67,0.0,0.0,0.0,0.0,1,1,0
62,'LV',1,3,1,7.77,4.16,0.0,0.0,0.0,0.0,1,1,0
63,'LV',1,3,1,12.28,5.75,0.0,0.0,0.0,0.0,1,1,0
64,'LV',1,3,1,12.63,6.39,0.0,0.0,0.0,0.0,1,1,0
65,'LV',1,3,1,38.85,12.92,0.0,0.0,0.0,0.0,1,1,0
66,'LV',1,3,1,8.86,4.36,0.0,0.0,0.0,0.0,1,1,0
67,'LV',1,3,1,10.73,5.69,0.0,0.0,0.0,0.0,1,1,0
68,'LV',1,3,1,17.07,7.66,0.0,0.0,0.0,0.0,1,1,0
69,'LV',1,3,1,12.87,5.38,0.0,0.0,0.0,0.0,1,1,0
70,'LV',1,3,1,12.63,5.98,0.0,0.0,0.0,0.0,1,1,0
71,'LV',1,3,1,7.34,4.17,0.0,0.0,0.0,0.0,1,1,0
72,'LV',1,3,1,10.29,4.8,0.0,0.0,0.0,0.0,1,1,0
73,'LV',1,3,1,5.27,2.68,0.0,0.0,0.0,0.0,1,1,0
74,'LV',1,3,1,5.65,2.88,0.0,0.0,0.0,0.0,1,1,0
75,'LV',1,3,1,5.36,2.9,0.0,0.0,0.0,0.0,1,1,0
76,'LV',1,3,1,5.53,2.84,0.0,0.0,0.0,0.0,1,1,0
77,'LV',1,3,1,13.84,6.73,0.0,0.0,0.0,0.0,1,1,0
78,'LV',1,3,1,7.24,3.64,0.0,0.0,0.0,0.0,1,1,0
79,'LV',1,3,1,5.6,2.59,0.0,0.0,0.0,0.0,1,1,0
80,'LV',1,3,1,12.85,6.39,0.0,0.0,0.0,0.0,1,1,0
81,'LV',1,3,1,10.19,4.58,0.0,0.0,0.0,0.0,1,1,0
82,'LV',1,3,1,10.34,5.47,0.0,0.0,0.0,0.0,1,1,0
83,'LV',1,3,1,13.11,6.98,0.0,0.0,0.0,0.0,1,1,0
84,'LV',1,3,1,8.61,3.69,0.0,0.0,0.0,0.0,1,1,0
85,'LV',1,14,4,11.86,5.28,0.0,0.0,0.0,0.0,1,1,0
86,'LV',1,14,4,11.2,4.78,0.0,0.0,0.0,0.0,1,1,0
87,'LV',1,14,4,8.6,3.62,0.0,0.0,0.0,0.0,1,1,0
88,'LV',1,14,4,11.29,5.0,0.0,0.0,0.0,0.0,1,1,0
89,'LV',1,14,4,10.54,3.99,0.0,0.0,0.0,0.0,1,1,0
90,'LV',1,14,4,12.03,5.15,0.0,0.0,0.0,0.0,1,1,0
91,'LV',1,14,4,16.23,8.65,0.0,0.0,0.0,0.0,1,1,0
92,'LV',1,14,4,30.77,13.59,0.0,0.0,0.0,0.0,1,1,0
93,'LV',1,14,4,11.32,5.94,0.0,0.0,0.0,0.0,1,1,0
94,'LV',1,14,4,11.97,5.96,0.0,0.0,0.0,0.0,1,1,0
95,'LV',1,14,4,12.12,6.15,0.0,0.0,0.0,0.0,1,1,0
96,'LV',1,14,4,11.7,5.86,0.0,0.0,0.0,0.0,1,1,0
97,'LV',1,14,4,10.21,4.67,0.0,0.0,0.0,0.0,1,1,0
98,'LV',1,14,4,58.86,21.42,0.0,0.0,0.0,0.0,1,1,0
99,'LV',1,14,4,56.89,15.645,0.0,0.0,0.0,0.0,1,1,0
100,'LV',1,14,4,7.06,2.66,0.0,0.0,0.0,0.0,1,1,0
101,'LV',1,14,4,7.45,4.08,0.0,0.0,0.0,0.0,1,1,0
102,'LV',1,14,4,10.61,4.51,0.0,0.0,0.0,0.0,1,1,0
103,'LV',1,14,4,11.56,5.02,0.0,0.0,0.0,0.0,1,1,0
104,'LV',1,14,4,10.67,4.73,0.0,0.0,0.0,0.0,1,1,0
105,'LV',1,14,4,14.7,6.28,0.0,0.0,0.0,0.0,1,1,0
106,'LV',1,14,4,13.39,7.02,0.0,0.0,0.0,0.0,1,1,0
107,'LV',1,14,4,10.57,5.24,0.0,0.0,0.0,0.0,1,1,0
108,'LV',1,14,4,13.17,4.38,0.0,0.0,0.0,0.0,1,1,0
109,'LV',1,14,4,11.07,4.01,0.0,0.0,0.0,0.0,1,1,0
110,'LV',1,14,4,7.9,3.34,0.0,0.0,0.0,0.0,1,1,0
111,'LV',1,14,4,7.15,3.14,0.0,0.0,0.0,0.0,1,1,0
112,'LV',1,14,4,5.93,0.78,0.0,0.0,0.0,0.0,1,1,0
113,'LV',1,14,4,5.74,2.72,0.0,0.0,0.0,0.0,1,1,0
114,'LV',1,14,4,8.33,3.8,0.0,0.0,0.0,0.0,1,1,0
115,'LV',1,14,4,10.58,5.24,0.0,0.0,0.0,0.0,1,1,0
116,'LV',1,14,4,5.47,2.56,0.0,0.0,0.0,0.0,1,1,0
117,'LV',1,14,4,7.31,3.63,0.0,0.0,0.0,0.0,1,1,0
118,'LV',1,14,4,9.81,4.3,0.0,0.0,0.0,0.0,1,1,0
119,'LV',1,14,4,5.54,2.24,0.0,0.0,0.0,0.0,1,1,0
120,'LV',1,14,4,18.88,9.25,0.0,0.0,0.0,0.0,1,1,0
121,'LV',1,14,4,6.04,3.03,0.0,0.0,0.0,0.0,1,1,0
122,'LV',1,14,4,14.44,7.19,0.0,0.0,0.0,0.0,1,1,0
123,'LV',1,14,4,10.6,5.59,0.0,0.0,0.0,0.0,1,1,0
124,'LV',1,14,4,25.47,7.004,0.0,0.0,0.0,0.0,1,1,0
125,'LV',1,14,4,8.81,4.8,0.0,0.0,0.0,0.0,1,1,0
126,'LV',1,14,4,8.61,3.6,0.0,0.0,0.0,0.0,1,1,0
127,'LV',1,14,4,16.53,6.85,0.0,0.0,0.0,0.0,1,1,0
128,'LV',1,14,4,11.83,5.88,0.0,0.0,0.0,0.0,1,1,0
129,'LV',1,14,4,12.69,7.01,0.0,0.0,0.0,0.0,1,1,0
130,'LV',1,14,4,5.74,2.58,0.0,0.0,0.0,0.0,1,1,0
131,'LV',1,14,4,10.5,4.87,0.0,0.0,0.0,0.0,1,1,0
132,'LV',1,14,4,5.49,2.69,0.0,0.0,0.0,0.0,1,1,0
133,'LV',1,14,4,8.01,4.2,0.0,0.0,0.0,0.0,1,1,0
134,'LV',1,14,4,6.51,3.8,0.0,0.0,0.0,0.0,1,1,0
135,'LV',1,14,4,21.01,5.84,0.0,0.0,0.0,0.0,1,1,0
136,'LV',1,14,4,16.66,4.582,0.0,0.0,0.0,0.0,1,1,0
137,'LV',1,14,4,15.82,6.8,0.0,0.0,0.0,0.0,1,1,0
138,'LV',1,14,4,13.44,5.94,0.0,0.0,0.0,0.0,1,1,0
139,'LV',1,14,4,37.48,16.58,0.0,0.0,0.0,0.0,1,1,0
140,'LV',1,16,3,5.41,2.77,0.0,0.0,0.0,0.0,1,1,0
141,'LV',1,16,3,14.38,6.79,0.0,0.0,0.0,0.0,1,1,0
142,'LV',1,16,1,7.93,4.03,0.0,0.0,0.0,0.0,1,1,0
143,'LV',1,16,1,7.29,3.71,0.0,0.0,0.0,0.0,1,1,0
144,'LV',1,16,1,13.49,6.65,0.0,0.0,0.0,0.0,1,1,0
145,'LV',1,16,2,11.25,5.24,0.0,0.0,0.0,0.0,1,1,0
146,'LV',1,16,1,11.18,2.8,0.0,0.0,0.0,0.0,1,1,0
147,'LV',1,16,1,38.17,8.156,0.0,0.0,0.0,0.0,1,1,0
148,'LV',1,16,3,12.72,4.6,0.0,0.0,0.0,0.0,1,1,0
149,'LV',1,16,3,5.95,2.91,0.0,0.0,0.0,0.0,1,1,0
150,'LV',1,16,3,8.8,3.81,0.0,0.0,0.0,0.0,1,1,0
151,'LV',1,16,3,5.03,2.55,0.0,0.0,0.0,0.0,1,1,0
152,'LV',1,16,3,5.94,2.6,0.0,0.0,0.0,0.0,1,1,0
153,'LV',1,16,3,12.68,6.75,0.0,0.0,0.0,0.0,1,1,0
154,'LV',1,16,3,12.57,5.19,0.0,0.0,0.0,0.0,1,1,0
155,'LV',1,16,3,12.99,4.78,0.0,0.0,0.0,0.0,1,1,0
156,'LV',1,16,3,26.32,12.89,0.0,0.0,0.0,0.0,1,1,0
157,'LV',1,16,3,11.43,4.75,0.0,0.0,0.0,0.0,1,1,0
158,'LV',1,16,3,16.39,6.68,0.0,0.0,0.0,0.0,1,1,0
159,'LV',1,16,3,10.02,4.09,0.0,0.0,0.0,0.0,1,1,0
160,'LV',1,16,3,10.73,5.41,0.0,0.0,0.0,0.0,1,1,0
161,'LV',1,16,3,16.83,8.25,0.0,0.0,0.0,0.0,1,1,0
162,'LV',1,16,3,6.03,3.0,0.0,0.0,0.0,0.0,1,1,0
163,'LV',1,16,3,9.45,5.21,0.0,0.0,0.0,0.0,1,1,0
164,'LV',1,16,3,10.45,3.78,0.0,0.0,0.0,0.0,1,1,0
165,'LV',1,16,3,14.08,4.61,0.0,0.0,0.0,0.0,1,1,0
166,'LV',1,16,3,7.02,3.74,0.0,0.0,0.0,0.0,1,1,0
167,'LV',1,16,3,14.25,6.14,0.0,0.0,0.0,0.0,1,1,0
168,'LV',1,16,3,13.57,5.97,0.0,0.0,0.0,0.0,1,1,0
169,'LV',1,16,3,8.41,3.67,0.0,0.0,0.0,0.0,1,1,0
170,'LV',1,16,3,15.52,6.3,0.0,0.0,0.0,0.0,1,1,0
171,'LV',1,16,3,11.32,5.26,0.0,0.0,0.0,0.0,1,1,0
172,'LV',1,16,3,10.12,4.75,0.0,0.0,0.0,0.0,1,1,0
173,'LV',1,16,4,20.8,5.72,0.0,0.0,0.0,0.0,1,1,0
174,'LV',1,16,4,13.28,5.29,0.0,0.0,0.0,0.0,1,1,0
175,'LV',1,16,4,17.48,4.807,0.0,0.0,0.0,0.0,1,1,0
176,'LV',1,16,4,6.73,3.03,0.0,0.0,0.0,0.0,1,1,0
177,'LV',1,16,4,6.09,2.62,0.0,0.0,0.0,0.0,1,1,0
178,'LV',1,16,4,12.34,6.52,0.0,0.0,0.0,0.0,1,1,0
179,'LV',1,16,4,10.79,4.83,0.0,0.0,0.0,0.0,1,1,0
180,'LV',1,16,4,5.15,2.32,0.0,0.0,0.0,0.0,1,1,0
181,'LV',1,16,4,6.73,2.94,0.0,0.0,0.0,0.0,1,1,0
182,'LV',1,16,4,12.91,5.07,0.0,0.0,0.0,0.0,1,1,0
183,'LV',1,16,4,18.72,5.148,0.0,0.0,0.0,0.0,1,1,0
184,'LV',1,16,4,5.29,2.66,0.0,0.0,0.0,0.0,1,1,0
185,'LV',1,16,4,12.41,4.92,0.0,0.0,0.0,0.0,1,1,0
186,'LV',1,16,4,14.4,7.33,0.0,0.0,0.0,0.0,1,1,0
187,'LV',1,16,4,5.45,1.89,0.0,0.0,0.0,0.0,1,1,0
188,'LV',1,16,2,7.81,4.21,0.0,0.0,0.0,0.0,1,1,0
189,'LV',1,16,2,5.13,2.05,0.0,0.0,0.0,0.0,1,1,0
190,'LV',1,16,2,5.8,2.51,0.0,0.0,0.0,0.0,1,1,0
191,'LV',1,16,2,9.98,4.56,0.0,0.0,0.0,0.0,1,1,0
192,'LV',1,16,2,16.14,8.35,0.0,0.0,0.0,0.0,1,1,0
193,'LV',1,16,1,11.63,4.67,0.0,0.0,0.0,0.0,1,1,0
194,'LV',1,16,1,12.46,5.25,0.0,0.0,0.0,0.0,1,1,0
195,'LV',1,16,1,6.01,2.64,0.0,0.0,0.0,0.0,1,1,0
196,'LV',1,16,1,5.19,2.73,0.0,0.0,0.0,0.0,1,1,0
197,'LV',1,16,1,8.22,4.39,0.0,0.0,0.0,0.0,1,1,0
198,'LV',1,16,1,11.48,6.11,0.0,0.0,0.0,0.0,1,1,0
199,'LV',1,16,1,16.23,5.84,0.0,0.0,0.0,0.0,1,1,0
200,'LV',1,16,1,15.07,6.62,0.0,0.0,0.0,0.0,1,1,0
...
0 / END OF LOAD DATA BEGIN FIXED SHUNT DATA
0 / END OF FIXED SHUNT DATA BEGIN GENERATOR DATA
874,'1',1251.787,257.265,514.7,-514.7,0.99575,0,100.0,0.0,1.0,0.0,0.0,1.0,1,100.0,1253.0,65.0,1,1.0,0,1.0,0,1.0,0,1.0,0,1.0
875,'1',459.243,222.8,222.8,-153.3,1.03186,0,100.0,0.0,1.0,0.0,0.0,1.0,1,100.0,460.0,100.0,1,1.0,0,1.0,0,1.0,0,1.0,0,1.0
876,'1',0.0,0.0,247.9,-133.3,1.02415,0,100.0,0.0,1.0,0.0,0.0,1.0,0,100.0,400.0,130.0,1,1.0,0,1.0,0,1.0,0,1.0,0,1.0
877,'1',289.0,179.1,179.1,-96.3,0.9841,0,100.0,0.0,1.0,0.0,0.0,1.0,1,100.0,289.0,160.0,1,1.0,0,1.0,0,1.0,0,1.0,0,1.0
878,'1',280.0,90.473,173.5,-93.3,0.98344,0,100.0,0.0,1.0,0.0,0.0,1.0,1,100.0,280.0,145.0,1,1.0,0,1.0,0,1.0,0,1.0,0,1.0
879,'1',179.673,69.628,111.6,-60.0,1.01604,0,100.0,0.0,1.0,0.0,0.0,1.0,1,100.0,180.0,95.4,1,1.0,0,1.0,0,1.0,0,1.0,0,1.0
880,'1',238.89,148.4,148.4,-79.8,0.97899,0,100.0,0.0,1.0,0.0,0.0,1.0,1,100.0,239.4,100.0,1,1.0,0,1.0,0,1.0,0,1.0,0,1.0
881,'1',95.822,72.0,72.0,-32.0,1.05106,0,100.0,0.0,1.0,0.0,0.0,1.0,1,100.0,96.0,50.0,1,1.0,0,1.0,0,1.0,0,1.0,0,1.0
882,'1',83.83,27.6,27.6,-27.6,1.0018,0,100.0,0.0,1.0,0.0,0.0,1.0,1,100.0,84.0,40.0,1,1.0,0,1.0,0,1.0,0,1.0,0,1.0
883,'1',298.257,104.21,200.9,-138.3,1.00191,0,100.0,0.0,1.0,0.0,0.0,1.0,1,100.0,414.9,125.0,1,1.0,0,1.0,0,1.0,0,1.0,0,1.0
884,'1',66.903,32.429,41.5,-22.3,1.0147,0,100.0,0.0,1.0,0.0,0.0,1.0,1,100.0,67.0,10.0,1,1.0,0,1.0,0,1.0,0,1.0,0,1.0
885,'1',39.903,15.253,24.8,-13.3,1.03,0,100.0,0.0,1.0,0.0,0.0,1.0,1,100.0,40.0,15.0,1,1.0,0,1.0,0,1.0,0,1.0,0,1.0
885,'2',55.845,15.253,34.7,-18.7,1.03,0,100.0,0.0,1.0,0.0,0.0,1.0,1,100.0,56.0,16.0,1,1.0,0,1.0,0,1.0,0,1.0,0,1.0
886,'1',50.865,19.924,31.6,-17.0,1.03568,0,100.0,0.0,1.0,0.0,0.0,1.0,1,100.0,51.0,16.0,1,1.0,0,1.0,0,1.0,0,1.0,0,1.0
886,'2',50.865,19.924,31.6,-17.0,1.03568,0,100.0,0.0,1.0,0.0,0.0,1.0,1,100.0,51.0,16.0,1,1.0,0,1.0,0,1.0,0,1.0,0,1.0
887,'1',0.0,0.0,31.0,-16.7,1.08282,0,100.0,0.0,1.0,0.0,0.0,1.0,0,100.0,50.0,2.0,1,1.0,0,1.0,0,1.0,0,1.0,0,1.0
887,'2',0.0,0.0,31.0,-16.7,1.08282,0,100.0,0.0,1.0,0.0,0.0,1.0,0,100.0,50.0,2.0,1,1.0,0,1.0,0,1.0,0,1.0,0,1.0
888,'1',44.935,21.8,21.8,-15.0,1.08508,0,100.0,0.0,1.0,0.0,0.0,1.0,1,100.0,45.0,22.0,1,1.0,0,1.0,0,1.0,0,1.0,0,1.0
888,'2',22.0,33.8,33.8,-15.0,1.08508,0,100.0,0.0,1.0,0.0,0.0,1.0,1,100.0,45.0,22.0,1,1.0,0,1.0,0,1.0,0,1.0,0,1.0
889,'1',44.011,21.4,21.4,-14.7,1.07371,0,100.0,0.0,1.0,0.0,0.0,1.0,1,100.0,44.1,21.0,1,1.0,0,1.0,0,1.0,0,1.0,0,1.0
889,'2',33.987,16.5,16.5,-11.4,1.07371,0,100.0,0.0,1.0,0.0,0.0,1.0,1,100.0,34.1,5.0,1,1.0,0,1.0,0,1.0,0,1.0,0,1.0
890,'1',41.677,20.2,20.2,-13.9,1.08169,0,100.0,0.0,1.0,0.0,0.0,1.0,1,100.0,41.8,10.0,1,1.0,0,1.0,0,1.0,0,1.0,0,1.0
890,'2',41.677,20.2,20.2,-13.9,1.08169,0,100.0,0.0,1.0,0.0,0.0,1.0,1,100.0,41.8,10.0,1,1.0,0,1.0,0,1.0,0,1.0,0,1.0
891,'1',35.76,23.047,23.1,-12.4,1.03817,0,100.0,0.0,1.0,0.0,0.0,1.0,1,100.0,37.2,0.0,1,1.0,0,1.0,0,1.0,0,1.0,0,1.0
892,'1',31.255,0.0,0.0,0.0,0.95932,0,100.0,0.0,1.0,0.0,0.0,1.0,1,100.0,31.3,6.0,1,1.0,0,1.0,0,1.0,0,1.0,0,1.0
893,'1',7.335,4.25,4.25,-2.55,1.002,0,100.0,0.0,1.0,0.0,0.0,1.0,1,100.0,7.63,0.0,1,1.0,0,1.0,0,1.0,0,1.0,0,1.0
893,'2',7.335,4.25,4.25,-2.55,1.002,0,100.0,0.0,1.0,0.0,0.0,1.0,1,100.0,7.63,0.0,1,1.0,0,1.0,0,1.0,0,1.0,0,1.0
894,'1',0.0,0.0,16.0,-8.6,0.98867,0,100.0,0.0,1.0,0.0,0.0,1.0,0,100.0,25.8,12.0,1,1.0,0,1.0,0,1.0,0,1.0,0,1.0
895,'1',3.871,13.247,18.0,-8.0,1.02739,0,100.0,0.0,1.0,0.0,0.0,1.0,1,100.0,24.0,0.0,1,1.0,0,1.0,0,1.0,0,1.0,0,1.0
896,'1',23.168,6.453,14.4,-7.7,1.01086,0,100.0,0.0,1.0,0.0,0.0,1.0,1,100.0,23.2,15.0,1,1.0,0,1.0,0,1.0,0,1.0,0,1.0
896,'2',23.168,6.453,14.4,-7.7,1.01086,0,100.0,0.0,1.0,0.0,0.0,1.0,1,100.0,23.2,15.0,1,1.0,0,1.0,0,1.0,0,1.0,0,1.0
897,'1',21.783,13.5,13.5,-7.3,1.01653,0,100.0,0.0,1.0,0.0,0.0,1.0,1,100.0,21.8,17.4,1,1.0,0,1.0,0,1.0,0,1.0,0,1.0
898,'1',21.766,9.407,13.5,-7.3,1.02928,0,100.0,0.0,1.0,0.0,0.0,1.0,1,100.0,21.8,13.0,1,1.0,0,1.0,0,1.0,0,1.0,0,1.0
899,'1',21.766,9.086,13.5,-7.3,0.96935,0,100.0,0.0,1.0,0.0,0.0,1.0,1,100.0,21.8,13.0,1,1.0,0,1.0,0,1.0,0,1.0,0,1.0
900,'1',20.15,9.73,14.6,-6.7,1.02948,0,100.0,0.0,1.0,0.0,0.0,1.0,1,100.0,20.2,7.4,1,1.0,0,1.0,0,1.0,0,1.0,0,1.0
901,'1',60.339,36.806,37.5,-20.2,1.08825,0,100.0,0.0,1.0,0.0,0.0,1.0,1,100.0,60.5,19.0,1,1.0,0,1.0,0,1.0,0,1.0,0,1.0
901,'2',60.339,36.806,37.5,-20.2,1.08825,0,100.0,0.0,1.0,0.0,0.0,1.0,1,100.0,60.5,19.0,1,1.0,0,1.0,0,1.0,0,1.0,0,1.0
902,'1',7.484,3.55,3.55,-3.55,1.00559,0,100.0,0.0,1.0,0.0,0.0,1.0,1,100.0,7.5,0.6,1,1.0,0,1.0,0,1.0,0,1.0,0,1.0
902,'2',7.484,3.55,3.55,-3.55,1.00559,0,100.0,0.0,1.0,0.0,0.0,1.0,1,100.0,7.5,0.6,1,1.0,0,1.0,0,1.0,0,1.0,0,1.0
903,'1',25.62,2.365,5.2,-5.2,0.98381,0,100.0,0.0,1.0,0.0,0.0,1.0,1,100.0,25.7,5.0,1,1.0,0,1.0,0,1.0,0,1.0,0,1.0
904,'2',909.019,227.389,440.7,-303.3,0.99575,0,100.0,0.0,1.0,0.0,0.0,1.0,1,100.0,909.9,150.0,1,1.0,0,1.0,0,1.0,0,1.0,0,1.0
905,'2',162.732,78.373,101.0,-54.3,1.02415,0,100.0,0.0,1.0,0.0,0.0,1.0,1,100.0,163.0,58.68,1,1.0,0,1.0,0,1.0,0,1.0,0,1.0
906,'2',289.0,179.1,179.1,-96.3,0.9841,0,100.0,0.0,1.0,0.0,0.0,1.0,1,100.0,289.0,160.0,1,1.0,0,1.0,0,1.0,0,1.0,0,1.0
907,'2',280.0,89.376,173.5,-93.3,0.98344,0,100.0,0.0,1.0,0.0,0.0,1.0,1,100.0,280.0,145.0,1,1.0,0,1.0,0,1.0,0,1.0,0,1.0
908,'2',169.691,68.828,105.4,-56.7,1.01604,0,100.0,0.0,1.0,0.0,0.0,1.0,1,100.0,170.0,90.1,1,1.0,0,1.0,0,1.0,0,1.0,0,1.0
909,'2',113.358,70.4,70.4,-37.9,1.03328,0,100.0,0.0,1.0,0.0,0.0,1.0,1,100.0,113.6,45.0,1,1.0,0,1.0,0,1.0,0,1.0,0,1.0
910,'2',74.877,56.3,56.3,-25.0,1.03604,0,100.0,0.0,1.0,0.0,0.0,1.0,1,100.0,75.0,40.0,1,1.0,0,1.0,0,1.0,0,1.0,0,1.0
911,'3',50.865,31.6,31.6,-17.0,1.03568,0,100.0,0.0,1.0,0.0,0.0,1.0,1,100.0,51.0,16.0,1,1.0,0,1.0,0,1.0,0,1.0,0,1.0
912,'3',0.0,0.0,31.0,-16.7,1.03179,0,100.0,0.0,1.0,0.0,0.0,1.0,0,100.0,50.0,2.0,1,1.0,0,1.0,0,1.0,0,1.0,0,1.0
913,'3',35.771,9.891,20.2,-13.9,0.9846,0,100.0,0.0,1.0,0.0,0.0,1.0,1,100.0,41.8,10.0,1,1.0,0,1.0,0,1.0,0,1.0,0,1.0
914,'3',7.335,4.25,4.25,-2.55,0.98587,0,100.0,0.0,1.0,0.0,0.0,1.0,1,100.0,7.63,0.0,1,1.0,0,1.0,0,1.0,0,1.0,0,1.0
915,'3',23.168,11.974,14.4,-7.7,1.01086,0,100.0,0.0,1.0,0.0,0.0,1.0,1,100.0,23.2,15.0,1,1.0,0,1.0,0,1.0,0,1.0,0,1.0
916,'3',24.977,15.5,15.5,-8.3,1.05381,0,100.0,0.0,1.0,0.0,0.0,1.0,1,100.0,25.0,19.1,1,1.0,0,1.0,0,1.0,0,1.0,0,1.0
917,'3',60.339,37.5,37.5,-20.2,1.04101,0,100.0,0.0,1.0,0.0,0.0,1.0,1,100.0,60.5,19.0,1,1.0,0,1.0,0,1.0,0,1.0,0,1.0
918,'3',7.484,3.55,3.55,-3.55,0.99177,0,100.0,0.0,1.0,0.0,0.0,1.0,1,100.0,7.5,0.6,1,1.0,0,1.0,0,1.0,0,1.0,0,1.0
919,'3',280.0,89.376,173.5,-93.3,0.98344,0,100.0,0.0,1.0,0.0,0.0,1.0,1,100.0,280.0,145.0,1,1.0,0,1.0,0,1.0,0,1.0,0,1.0
920,'3',169.691,68.828,105.4,-56.7,1.01604,0,100.0,0.0,1.0,0.0,0.0,1.0,1,100.0,170.0,90.1,1,1.0,0,1.0,0,1.0,0,1.0,0,1.0
921,'3',346.703,94.29,200.9,-138.3,0.97899,0,100.0,0.0,1.0,0.0,0.0,1.0,1,100.0,414.9,125.0,1,1.0,0,1.0,0,1.0,0,1.0,0,1.0
922,'4',50.865,31.6,31.6,-17.0,1.03568,0,100.0,0.0,1.0,0.0,0.0,1.0,1,100.0,51.0,16.0,1,1.0,0,1.0,0,1.0,0,1.0,0,1.0
923,'4',0.0,0.0,31.0,-16.7,1.03179,0,100.0,0.0,1.0,0.0,0.0,1.0,0,100.0,50.0,2.0,1,1.0,0,1.0,0,1.0,0,1.0,0,1.0
924,'4',41.677,10.024,31.4,-13.9,0.98402,0,100.0,0.0,1.0,0.0,0.0,1.0,1,100.0,41.8,10.0,1,1.0,0,1.0,0,1.0,0,1.0,0,1.0
925,'4',7.335,4.25,4.25,-2.55,0.98587,0,100.0,0.0,1.0,0.0,0.0,1.0,1,100.0,7.63,0.0,1,1.0,0,1.0,0,1.0,0,1.0,0,1.0
926,'2',19.997,12.4,12.4,-6.7,1.05381,0,100.0,0.0,1.0,0.0,0.0,1.0,1,100.0,20.0,19.1,1,1.0,0,1.0,0,1.0,0,1.0,0,1.0
926,'4',24.977,15.5,15.5,-8.3,1.05381,0,100.0,0.0,1.0,0.0,0.0,1.0,1,100.0,25.0,19.1,1,1.0,0,1.0,0,1.0,0,1.0,0,1.0
927,'4',60.339,37.5,37.5,-20.2,1.04101,0,100.0,0.0,1.0,0.0,0.0,1.0,1,100.0,60.5,19.0,1,1.0,0,1.0,0,1.0,0,1.0,0,1.0
928,'4',7.484,3.55,3.55,-3.55,0.99177,0,100.0,0.0,1.0,0.0,0.0,1.0,1,100.0,7.5,0.6,1,1.0,0,1.0,0,1.0,0,1.0,0,1.0
929,'5',0.0,0.0,31.0,-16.7,1.03179,0,100.0,0.0,1.0,0.0,0.0,1.0,0,100.0,50.0,2.0,1,1.0,0,1.0,0,1.0,0,1.0,0,1.0
930,'1',19.998,12.4,12.4,-6.7,1.05381,0,100.0,0.0,1.0,0.0,0.0,1.0,1,100.0,20.0,19.6,1,1.0,0,1.0,0,1.0,0,1.0,0,1.0
930,'5',24.976,15.5,15.5,-8.3,1.05381,0,100.0,0.0,1.0,0.0,0.0,1.0,1,100.0,25.0,18.7,1,1.0,0,1.0,0,1.0,0,1.0,0,1.0
931,'1',183.893,83.79,114.2,-61.4,1.0276,0,100.0,0.0,1.0,0.0,0.0,1.0,1,100.0,184.2,105.0,1,1.0,0,1.0,0,1.0,0,1.0,0,1.0
932,'1',177.363,78.89,110.2,-59.3,1.00961,0,100.0,0.0,1.0,0.0,0.0,1.0,1,100.0,177.8,65.0,1,1.0,0,1.0,0,1.0,0,1.0,0,1.0
933,'1',4.278,0.359,2.15,-1.48,0.98083,0,100.0,0.0,1.0,0.0,0.0,1.0,1,100.0,4.45,0.0,1,1.0,0,1.0,0,1.0,0,1.0,0,1.0
933,'2',4.278,0.359,2.15,-1.48,0.98083,0,100.0,0.0,1.0,0.0,0.0,1.0,1,100.0,4.45,0.0,1,1.0,0,1.0,0,1.0,0,1.0,0,1.0
934,'1',102.56,12.104,52.6,-34.2,0.98431,0,100.0,0.0,1.0,0.0,0.0,1.0,1,100.0,102.6,5.0,1,1.0,0,1.0,0,1.0,0,1.0,0,1.0
935,'1',57.0,3.838,22.5,-22.5,0.97844,0,100.0,0.0,1.0,0.0,0.0,1.0,1,100.0,57.0,0.0,1,1.0,0,1.0,0,1.0,0,1.0,1,1.0
936,'1',0.0,0.0,33.8,-18.2,1.09287,0,100.0,0.0,1.0,0.0,0.0,1.0,0,100.0,54.5,38.0,1,1.0,0,1.0,0,1.0,0,1.0,0,1.0
936,'2',0.0,0.0,33.8,-18.2,1.09287,0,100.0,0.0,1.0,0.0,0.0,1.0,0,100.0,54.5,38.0,1,1.0,0,1.0,0,1.0,0,1.0,0,1.0
937,'1',0.0,0.0,249.9,-249.9,1.03931,0,100.0,0.0,1.0,0.0,0.0,1.0,0,100.0,632.4,60.0,1,1.0,0,1.0,0,1.0,0,1.0,0,1.0
938,'1',48.481,23.5,23.5,-16.2,1.07835,0,100.0,0.0,1.0,0.0,0.0,1.0,1,100.0,48.5,5.0,1,1.0,0,1.0,0,1.0,0,1.0,0,1.0
938,'2',68.374,42.4,42.4,-22.8,1.07835,0,100.0,0.0,1.0,0.0,0.0,1.0,1,100.0,68.4,5.0,1,1.0,0,1.0,0,1.0,0,1.0,0,1.0
939,'1',45.682,13.166,28.3,-15.2,1.00765,0,100.0,0.0,1.0,0.0,0.0,1.0,1,100.0,45.7,18.0,1,1.0,0,1.0,0,1.0,0,1.0,0,1.0
940,'1',7.133,3.535,3.6,-2.47,1.00295,0,100.0,0.0,1.0,0.0,0.0,1.0,1,100.0,7.42,0.0,1,1.0,0,1.0,0,1.0,0,1.0,0,1.0
940,'2',7.133,3.535,3.6,-2.47,1.00295,0,100.0,0.0,1.0,0.0,0.0,1.0,1,100.0,7.42,0.0,1,1.0,0,1.0,0,1.0,0,1.0,0,1.0
941,'1',42.0,4.557,16.6,-16.6,1.0,0,100.0,0.0,1.0,0.0,0.0,1.0,1,100.0,42.0,0.0,1,1.0,0,1.0,0,1.0,0,1.0,1,1.0
942,'1',39.585,19.2,19.2,-13.2,1.06627,0,100.0,0.0,1.0,0.0,0.0,1.0,1,100.0,39.6,18.0,1,1.0,0,1.0,0,1.0,0,1.0,0,1.0
943,'1',39.585,-3.489,19.2,-13.2,0.96834,0,100.0,0.0,1.0,0.0,0.0,1.0,1,100.0,39.6,18.0,1,1.0,0,1.0,0,1.0,0,1.0,0,1.0
944,'1',37.485,18.538,28.1,-12.5,1.04212,0,100.0,0.0,1.0,0.0,0.0,1.0,1,100.0,37.5,15.0,1,1.0,0,1.0,0,1.0,0,1.0,0,1.0
945,'1',28.839,9.212,14.5,-10.0,1.0009,0,100.0,0.0,1.0,0.0,0.0,1.0,1,100.0,30.0,0.0,1,1.0,0,1.0,0,1.0,0,1.0,0,1.0
945,'2',28.839,9.212,14.5,-10.0,1.0009,0,100.0,0.0,1.0,0.0,0.0,1.0,1,100.0,30.0,0.0,1,1.0,0,1.0,0,1.0,0,1.0,0,1.0
946,'1',2.144,0.6,0.6,-0.6,0.96318,0,100.0,0.0,1.0,0.0,0.0,1.0,1,100.0,2.23,0.0,1,1.0,0,1.0,0,1.0,0,1.0,0,1.0
946,'2',2.144,0.6,0.6,-0.6,0.96318,0,100.0,0.0,1.0,0.0,0.0,1.0,1,100.0,2.23,0.0,1,1.0,0,1.0,0,1.0,0,1.0,0,1.0
947,'1',14.244,8.85,8.85,-4.75,1.03186,0,100.0,0.0,1.0,0.0,0.0,1.0,1,100.0,14.25,2.0,1,1.0,0,1.0,0,1.0,0,1.0,0,1.0
947,'2',14.244,8.85,8.85,-4.75,1.03186,0,100.0,0.0,1.0,0.0,0.0,1.0,1,100.0,14.25,2.0,1,1.0,0,1.0,0,1.0,0,1.0,0,1.0
948,'1',13.65,6.9,6.9,-4.75,1.01108,0,100.0,0.0,1.0,0.0,0.0,1.0,1,100.0,14.2,0.0,1,1.0,0,1.0,0,1.0,0,1.0,0,1.0
948,'2',13.65,6.9,6.9,-4.75,1.01108,0,100.0,0.0,1.0,0.0,0.0,1.0,1,100.0,14.2,0.0,1,1.0,0,1.0,0,1.0,0,1.0,0,1.0
949,'1',27.489,17.0,17.0,-9.2,1.02481,0,100.0,0.0,1.0,0.0,0.0,1.0,1,100.0,27.5,6.0,1,1.0,0,1.0,0,1.0,0,1.0,0,1.0
950,'1',4.423,-0.068,2.97,-1.48,0.99864,0,100.0,0.0,1.0,0.0,0.0,1.0,1,100.0,4.43,1.5,1,1.0,0,1.0,0,1.0,0,1.0,0,1.0
950,'2',4.423,-0.068,2.97,-1.48,0.99864,0,100.0,0.0,1.0,0.0,0.0,1.0,1,100.0,4.43,1.5,1,1.0,0,1.0,0,1.0,0,1.0,0,1.0
951,'1',25.5,3.011,10.1,-10.1,0.98903,0,100.0,0.0,1.0,0.0,0.0,1.0,1,100.0,25.5,0.0,1,1.0,0,1.0,0,1.0,0,1.0,1,1.0
952,'1',25.263,15.7,15.7,-8.4,1.01671,0,100.0,0.0,1.0,0.0,0.0,1.0,1,100.0,25.3,5.0,1,1.0,0,1.0,0,1.0,0,1.0,0,1.0
953,'1',24.99,9.421,12.1,-8.3,0.99695,0,100.0,0.0,1.0,0.0,0.0,1.0,1,100.0,25.0,9.0,1,1.0,0,1.0,0,1.0,0,1.0,0,1.0
953,'2',24.99,9.421,12.1,-8.3,0.99695,0,100.0,0.0,1.0,0.0,0.0,1.0,1,100.0,25.0,9.0,1,1.0,0,1.0,0,1.0,0,1.0,0,1.0
954,'1',21.968,5.605,13.6,-7.3,1.00855,0,100.0,0.0,1.0,0.0,0.0,1.0,1,100.0,22.0,6.0,1,1.0,0,1.0,0,1.0,0,1.0,0,1.0
955,'1',71.972,44.6,44.6,-24.0,1.01982,0,100.0,0.0,1.0,0.0,0.0,1.0,1,100.0,72.0,10.0,1,1.0,0,1.0,0,1.0,0,1.0,0,1.0
956,'1',179.035,24.656,111.2,-59.8,0.98924,0,100.0,0.0,1.0,0.0,0.0,1.0,1,100.0,179.4,85.0,1,1.0,0,1.0,0,1.0,0,1.0,0,1.0
957,'1',21.515,-0.304,13.88,-7.18,0.97404,0,100.0,0.0,1.0,0.0,0.0,1.0,1,100.0,21.55,6.46,1,1.0,0,1.0,0,1.0,0,1.0,0,1.0
957,'2',21.515,-0.304,13.88,-7.18,0.97404,0,100.0,0.0,1.0,0.0,0.0,1.0,1,100.0,21.55,6.46,1,1.0,0,1.0,0,1.0,0,1.0,0,1.0
958,'1',30.188,0.0,0.0,0.0,1.00424,0,100.0,0.0,1.0,0.0,0.0,1.0,1,100.0,30.2,0.34,1,1.0,0,1.0,0,1.0,0,1.0,0,1.0
958,'2',20.462,11.5,11.5,-6.83,1.00424,0,100.0,0.0,1.0,0.0,0.0,1.0,1,100.0,20.47,0.34,1,1.0,0,1.0,0,1.0,0,1.0,0,1.0
959,'1',17.44,10.158,10.85,-5.85,1.0898,0,100.0,0.0,1.0,0.0,0.0,1.0,1,100.0,17.5,2.0,1,1.0,0,1.0,0,1.0,0,1.0,0,1.0
959,'2',17.44,10.158,10.85,-5.85,1.0898,0,100.0,0.0,1.0,0.0,0.0,1.0,1,100.0,17.5,2.0,1,1.0,0,1.0,0,1.0,0,1.0,0,1.0
960,'1',27.489,13.082,17.0,-9.2,1.01799,0,100.0,0.0,1.0,0.0,0.0,1.0,1,100.0,27.5,6.0,1,1.0,0,1.0,0,1.0,0,1.0,0,1.0
961,'1',22.991,14.122,17.3,-7.7,1.05253,0,100.0,0.0,1.0,0.0,0.0,1.0,1,100.0,23.0,7.0,1,1.0,0,1.0,0,1.0,0,1.0,0,1.0
961,'2',26.79,14.122,20.1,-8.9,1.05253,0,100.0,0.0,1.0,0.0,0.0,1.0,1,100.0,26.8,7.0,1,1.0,0,1.0,0,1.0,0,1.0,0,1.0
962,'2',183.893,83.799,114.2,-61.4,1.0276,0,100.0,0.0,1.0,0.0,0.0,1.0,1,100.0,184.2,105.0,1,1.0,0,1.0,0,1.0,0,1.0,0,1.0
963,'2',177.363,78.885,110.2,-59.3,1.00961,0,100.0,0.0,1.0,0.0,0.0,1.0,1,100.0,177.8,65.0,1,1.0,0,1.0,0,1.0,0,1.0,0,1.0
964,'3',4.278,0.878,2.15,-1.48,0.98083,0,100.0,0.0,1.0,0.0,0.0,1.0,1,100.0,4.45,0.0,1,1.0,0,1.0,0,1.0,0,1.0,0,1.0
965,'3',0.0,0.0,33.8,-18.2,1.0427,0,100.0,0.0,1.0,0.0,0.0,1.0,0,100.0,54.5,38.0,1,1.0,0,1.0,0,1.0,0,1.0,0,1.0
966,'2',113.413,70.4,70.4,-37.9,1.03931,0,100.0,0.0,1.0,0.0,0.0,1.0,1,100.0,113.6,30.0,1,1.0,0,1.0,0,1.0,0,1.0,0,1.0
967,'3',7.133,1.471,3.6,-2.47,0.9817,0,100.0,0.0,1.0,0.0,0.0,1.0,1,100.0,7.42,0.0,1,1.0,0,1.0,0,1.0,0,1.0,0,1.0
968,'3',2.144,0.6,0.6,-0.6,0.96073,0,100.0,0.0,1.0,0.0,0.0,1.0,1,100.0,2.23,0.0,1,1.0,0,1.0,0,1.0,0,1.0,0,1.0
969,'3',4.423,-1.48,2.97,-1.48,0.98741,0,100.0,0.0,1.0,0.0,0.0,1.0,1,100.0,4.43,1.5,1,1.0,0,1.0,0,1.0,0,1.0,0,1.0
970,'3',29.988,14.5,14.5,-10.0,0.99695,0,100.0,0.0,1.0,0.0,0.0,1.0,1,100.0,30.0,8.0,1,1.0,0,1.0,0,1.0,0,1.0,0,1.0
971,'2',186.503,84.19,115.8,-62.3,1.01982,0,100.0,0.0,1.0,0.0,0.0,1.0,1,100.0,186.8,110.0,1,1.0,0,1.0,0,1.0,0,1.0,0,1.0
972,'2',94.906,15.89,58.9,-31.7,0.98924,0,100.0,0.0,1.0,0.0,0.0,1.0,1,100.0,95.1,45.0,1,1.0,0,1.0,0,1.0,0,1.0,0,1.0
973,'3',21.515,-1.44,13.88,-7.18,0.97404,0,100.0,0.0,1.0,0.0,0.0,1.0,1,100.0,21.55,6.46,1,1.0,0,1.0,0,1.0,0,1.0,0,1.0
974,'3',20.462,11.5,11.5,-6.83,1.01454,0,100.0,0.0,1.0,0.0,0.0,1.0,1,100.0,20.47,0.34,1,1.0,0,1.0,0,1.0,0,1.0,0,1.0
975,'3',195.034,90.324,121.2,-65.2,1.0276,0,100.0,0.0,1.0,0.0,0.0,1.0,1,100.0,195.5,75.0,1,1.0,0,1.0,0,1.0,0,1.0,0,1.0
976,'3',194.002,85.534,120.6,-64.9,1.00961,0,100.0,0.0,1.0,0.0,0.0,1.0,1,100.0,194.6,40.0,1,1.0,0,1.0,0,1.0,0,1.0,0,1.0
977,'4',4.278,0.876,2.15,-1.48,0.98083,0,100.0,0.0,1.0,0.0,0.0,1.0,1,100.0,4.45,0.0,1,1.0,0,1.0,0,1.0,0,1.0,0,1.0
978,'3',49.918,31.0,31.0,-16.7,1.03931,0,100.0,0.0,1.0,0.0,0.0,1.0,1,100.0,50.0,10.0,1,1.0,0,1.0,0,1.0,0,1.0,0,1.0
979,'4',7.133,1.471,3.6,-2.47,0.9817,0,100.0,0.0,1.0,0.0,0.0,1.0,1,100.0,7.42,0.0,1,1.0,0,1.0,0,1.0,0,1.0,0,1.0
980,'4',2.144,0.6,0.6,-0.6,0.96073,0,100.0,0.0,1.0,0.0,0.0,1.0,1,100.0,2.23,0.0,1,1.0,0,1.0,0,1.0,0,1.0,0,1.0
981,'4',4.423,-1.48,2.97,-1.48,0.98741,0,100.0,0.0,1.0,0.0,0.0,1.0,1,100.0,4.43,1.5,1,1.0,0,1.0,0,1.0,0,1.0,0,1.0
982,'4',21.515,-1.441,13.88,-7.18,0.97404,0,100.0,0.0,1.0,0.0,0.0,1.0,1,100.0,21.55,6.46,1,1.0,0,1.0,0,1.0,0,1.0,0,1.0
983,'4',20.462,11.5,11.5,-6.83,1.01454,0,100.0,0.0,1.0,0.0,0.0,1.0,1,100.0,20.47,0.34,1,1.0,0,1.0,0,1.0,0,1.0,0,1.0
984,'5',4.278,0.876,2.15,-1.48,0.98083,0,100.0,0.0,1.0,0.0,0.0,1.0,1,100.0,4.45,0.0,1,1.0,0,1.0,0,1.0,0,1.0,0,1.0
985,'4',49.918,31.0,31.0,-16.7,1.03931,0,100.0,0.0,1.0,0.0,0.0,1.0,1,100.0,50.0,10.0,1,1.0,0,1.0,0,1.0,0,1.0,0,1.0
986,'5',7.133,1.471,3.6,-2.47,0.9817,0,100.0,0.0,1.0,0.0,0.0,1.0,1,100.0,7.42,0.0,1,1.0,0,1.0,0,1.0,0,1.0,0,1.0
987,'5',2.144,0.6,0.6,-0.6,0.96073,0,100.0,0.0,1.0,0.0,0.0,1.0,1,100.0,2.23,0.0,1,1.0,0,1.0,0,1.0,0,1.0,0,1.0
988,'5',4.423,-1.48,2.97,-1.48,0.98741,0,100.0,0.0,1.0,0.0,0.0,1.0,1,100.0,4.43,1.5,1,1.0,0,1.0,0,1.0,0,1.0,0,1.0
989,'5',23.461,-1.422,14.6,-7.8,0.97404,0,100.0,0.0,1.0,0.0,0.0,1.0,1,100.0,23.5,8.46,1,1.0,0,1.0,0,1.0,0,1.0,0,1.0
990,'6',4.278,0.878,2.15,-1.48,0.98083,0,100.0,0.0,1.0,0.0,0.0,1.0,1,100.0,4.45,0.0,1,1.0,0,1.0,0,1.0,0,1.0,0,1.0
991,'6',7.133,1.471,3.6,-2.47,0.9817,0,100.0,0.0,1.0,0.0,0.0,1.0,1,100.0,7.42,0.0,1,1.0,0,1.0,0,1.0,0,1.0,0,1.0
992,'6',2.144,0.6,0.6,-0.6,0.96073,0,100.0,0.0,1.0,0.0,0.0,1.0,1,100.0,2.23,0.0,1,1.0,0,1.0,0,1.0,0,1.0,0,1.0
993,'6',4.423,-1.48,2.97,-1.48,0.98741,0,100.0,0.0,1.0,0.0,0.0,1.0,1,100.0,4.43,1.5,1,1.0,0,1.0,0,1.0,0,1.0,0,1.0
994,'6',31.448,-1.227,19.5,-10.5,0.97404,0,100.0,0.0,1.0,0.0,0.0,1.0,1,100.0,31.5,11.34,1,1.0,0,1.0,0,1.0,0,1.0,0,1.0
995,'7',4.278,0.878,2.15,-1.48,0.98083,0,100.0,0.0,1.0,0.0,0.0,1.0,1,100.0,4.45,0.0,1,1.0,0,1.0,0,1.0,0,1.0,0,1.0
996,'7',2.144,0.6,0.6,-0.6,0.96073,0,100.0,0.0,1.0,0.0,0.0,1.0,1,100.0,2.23,0.0,1,1.0,0,1.0,0,1.0,0,1.0,0,1.0
997,'8',4.278,0.876,2.15,-1.48,0.98083,0,100.0,0.0,1.0,0.0,0.0,1.0,1,100.0,4.45,0.0,1,1.0,0,1.0,0,1.0,0,1.0,0,1.0
998,'8',2.144,0.6,0.6,-0.6,0.96073,0,100.0,0.0,1.0,0.0,0.0,1.0,1,100.0,2.23,0.0,1,1.0,0,1.0,0,1.0,0,1.0,0,1.0
999,'9',4.278,0.878,2.15,-1.48,0.98083,0,100.0,0.0,1.0,0.0,0.0,1.0,1,100.0,4.45,0.0,1,1.0,0,1.0,0,1.0,0,1.0,0,1.0
1000,'9',2.144,0.6,0.6,-0.6,0.96073,0,100.0,0.0,1.0,0.0,0.0,1.0,1,100.0,2.23,0.0,1,1.0,0,1.0,0,1.0,0,1.0,0,1.0
1001,'10',4.278,0.878,2.15,-1.48,0.98083,0,100.0,0.0,1.0,0.0,0.0,1.0,1,100.0,4.45,0.0,1,1.0,0,1.0,0,1.0,0,1.0,0,1.0
1002,'10',2.144,0.6,0.6,-0.6,0.96073,0,100.0,0.0,1.0,0.0,0.0,1.0,1,100.0,2.23,0.0,1,1.0,0,1.0,0,1.0,0,1.0,0,1.0
1003,'11',4.278,0.876,2.15,-1.48,0.98083,0,100.0,0.0,1.0,0.0,0.0,1.0,1,100.0,4.45,0.0,1,1.0,0,1.0,0,1.0,0,1.0,0,1.0
1004,'11',2.144,0.6,0.6,-0.6,0.96073,0,100.0,0.0,1.0,0.0,0.0,1.0,1,100.0,2.23,0.0,1,1.0,0,1.0,0,1.0,0,1.0,0,1.0
1005,'12',4.278,0.878,2.15,-1.48,0.98083,0,100.0,0.0,1.0,0.0,0.0,1.0,1,100.0,4.45,0.0,1,1.0,0,1.0,0,1.0,0,1.0,0,1.0
1006,'12',2.144,0.6,0.6,-0.6,0.96073,0,100.0,0.0,1.0,0.0,0.0,1.0,1,100.0,2.23,0.0,1,1.0,0,1.0,0,1.0,0,1.0,0,1.0
1007,'13',4.278,0.876,2.15,-1.48,0.98083,0,100.0,0.0,1.0,0.0,0.0,1.0,1,100.0,4.45,0.0,1,1.0,0,1.0,0,1.0,0,1.0,0,1.0
1008,'13',2.144,0.6,0.6,-0.6,0.96073,0,100.0,0.0,1.0,0.0,0.0,1.0,1,100.0,2.23,0.0,1,1.0,0,1.0,0,1.0,0,1.0,0,1.0
1009,'14',4.278,0.876,2.15,-1.48,0.98083,0,100.0,0.0,1.0,0.0,0.0,1.0,1,100.0,4.45,0.0,1,1.0,0,1.0,0,1.0,0,1.0,0,1.0
1010,'15',4.278,0.876,2.15,-1.48,0.98083,0,100.0,0.0,1.0,0.0,0.0,1.0,1,100.0,4.45,0.0,1,1.0,0,1.0,0,1.0,0,1.0,0,1.0
1011,'16',4.278,0.878,2.15,-1.48,0.98083,0,100.0,0.0,1.0,0.0,0.0,1.0,1,100.0,4.45,0.0,1,1.0,0,1.0,0,1.0,0,1.0,0,1.0
1012,'17',4.278,0.878,2.15,-1.48,0.98083,0,100.0,0.0,1.0,0.0,0.0,1.0,1,100.0,4.45,0.0,1,1.0,0,1.0,0,1.0,0,1.0,0,1.0
1013,'18',4.278,0.876,2.15,-1.48,0.98083,0,100.0,0.0,1.0,0.0,0.0,1.0,1,100.0,4.45,0.0,1,1.0,0,1.0,0,1.0,0,1.0,0,1.0
1014,'19',4.278,0.878,2.15,-1.48,0.98083,0,100.0,0.0,1.0,0.0,0.0,1.0,1,100.0,4.45,0.0,1,1.0,0,1.0,0,1.0,0,1.0,0,1.0
1015,'20',4.278,0.876,2.15,-1.48,0.98083,0,100.0,0.0,1.0,0.0,0.0,1.0,1,100.0,4.45,0.0,1,1.0,0,1.0,0,1.0,0,1.0,0,1.0
1016,'21',4.278,0.878,2.15,-1.48,0.98083,0,100.0,0.0,1.0,0.0,0.0,1.0,1,100.0,4.45,0.0,1,1.0,0,1.0,0,1.0,0,1.0,0,1.0
1017,'22',4.278,0.876,2.15,-1.48,0.98083,0,100.0,0.0,1.0,0.0,0.0,1.0,1,100.0,4.45,0.0,1,1.0,0,1.0,0,1.0,0,1.0,0,1.0
1018,'23',4.278,0.878,2.15,-1.48,0.98083,0,100.0,0.0,1.0,0.0,0.0,1.0,1,100.0,4.45,0.0,1,1.0,0,1.0,0,1.0,0,1.0,0,1.0
1019,'24',4.278,0.878,2.15,-1.48,0.98083,0,100.0,0.0,1.0,0.0,0.0,1.0,1,100.0,4.45,0.0,1,1.0,0,1.0,0,1.0,0,1.0,0,1.0
1020,'25',4.278,0.878,2.15,-1.48,0.98083,0,100.0,0.0,1.0,0.0,0.0,1.0,1,100.0,4.45,0.0,1,1.0,0,1.0,0,1.0,0,1.0,0,1.0
1021,'26',4.278,0.876,2.15,-1.48,0.98083,0,100.0,0.0,1.0,0.0,0.0,1.0,1,100.0,4.45,0.0,1,1.0,0,1.0,0,1.0,0,1.0,0,1.0
1022,'27',4.278,0.876,2.15,-1.48,0.98083,0,100.0,0.0,1.0,0.0,0.0,1.0,1,100.0,4.45,0.0,1,1.0,0,1.0,0,1.0,0,1.0,0,1.0
1023,'28',4.278,0.876,2.15,-1.48,0.98083,0,100.0,0.0,1.0,0.0,0.0,1.0,1,100.0,4.45,0.0,1,1.0,0,1.0,0,1.0,0,1.0,0,1.0
1024,'29',4.278,0.876,2.15,-1.48,0.98083,0,100.0,0.0,1.0,0.0,0.0,1.0,1,100.0,4.45,0.0,1,1.0,0,1.0,0,1.0,0,1.0,0,1.0
1025,'30',4.278,0.878,2.15,-1.48,0.98083,0,100.0,0.0,1.0,0.0,0.0,1.0,1,100.0,4.45,0.0,1,1.0,0,1.0,0,1.0,0,1.0,0,1.0
1026,'31',4.278,0.876,2.15,-1.48,0.98083,0,100.0,0.0,1.0,0.0,0.0,1.0,1,100.0,4.45,0.0,1,1.0,0,1.0,0,1.0,0,1.0,0,1.0
1027,'1',0.0,0.0,190.6,-190.6,1.00816,0,100.0,0.0,1.0,0.0,0.0,1.0,0,100.0,580.0,170.0,1,1.0,0,1.0,0,1.0,0,1.0,0,1.0
1028,'1',84.884,28.911,41.2,-28.3,1.00403,0,100.0,0.0,1.0,0.0,0.0,1.0,1,100.0,85.0,55.0,1,1.0,0,1.0,0,1.0,0,1.0,0,1.0
1029,'1',0.0,89.24,145.3,-100.0,0.98345,0,100.0,0.0,1.0,0.0,0.0,1.0,1,100.0,300.0,0.0,1,1.0,0,1.0,0,1.0,0,1.0,0,1.0
1030,'1',289.0,185.549,216.8,-96.3,0.98382,0,100.0,0.0,1.0,0.0,0.0,1.0,1,100.0,289.0,155.0,1,1.0,0,1.0,0,1.0,0,1.0,0,1.0
1031,'1',289.0,179.1,179.1,-96.3,0.98412,0,100.0,0.0,1.0,0.0,0.0,1.0,1,100.0,289.0,150.0,1,1.0,0,1.0,0,1.0,0,1.0,0,1.0
1032,'1',289.0,108.655,179.1,-96.3,0.98332,0,100.0,0.0,1.0,0.0,0.0,1.0,1,100.0,289.0,150.0,1,1.0,0,1.0,0,1.0,0,1.0,0,1.0
1033,'1',299.785,49.815,298.8,-205.7,0.98393,0,100.0,0.0,1.0,0.0,0.0,1.0,1,100.0,617.0,90.0,1,1.0,0,1.0,0,1.0,0,1.0,0,1.0
1034,'1',278.063,172.7,172.7,-92.9,0.98357,0,100.0,0.0,1.0,0.0,0.0,1.0,1,100.0,278.6,140.0,1,1.0,0,1.0,0,1.0,0,1.0,0,1.0
1035,'1',19.969,12.4,12.4,-6.7,1.07476,0,100.0,0.0,1.0,0.0,0.0,1.0,1,100.0,20.0,12.0,1,1.0,0,1.0,0,1.0,0,1.0,0,1.0
1036,'1',304.518,112.688,230.3,-158.5,0.98355,0,100.0,0.0,1.0,0.0,0.0,1.0,1,100.0,475.5,50.0,1,1.0,0,1.0,0,1.0,0,1.0,0,1.0
1037,'1',0.0,26.839,77.2,-77.2,0.99726,0,100.0,0.0,1.0,0.0,0.0,1.0,1,100.0,235.0,0.0,1,1.0,0,1.0,0,1.0,0,1.0,0,1.0
1038,'1',229.4,75.6,75.6,-75.6,1.01361,0,100.0,0.0,1.0,0.0,0.0,1.0,1,100.0,230.0,75.0,1,1.0,0,1.0,0,1.0,0,1.0,0,1.0
1039,'1',200.0,123.9,123.9,-66.7,1.06966,0,100.0,0.0,1.0,0.0,0.0,1.0,1,100.0,200.0,108.0,1,1.0,0,1.0,0,1.0,0,1.0,0,1.0
1040,'1',0.0,0.0,84.3,-45.3,1.03291,0,100.0,0.0,1.0,0.0,0.0,1.0,0,100.0,136.0,60.0,1,1.0,0,1.0,0,1.0,0,1.0,0,1.0
1041,'1',128.326,32.3,32.3,-32.3,1.00748,0,100.0,0.0,1.0,0.0,0.0,1.0,1,100.0,128.7,32.0,1,1.0,0,1.0,0,1.0,0,1.0,0,1.0
1042,'1',68.752,33.4,33.4,-23.0,1.0048,0,100.0,0.0,1.0,0.0,0.0,1.0,1,100.0,69.0,5.0,1,1.0,0,1.0,0,1.0,0,1.0,0,1.0
1043,'1',9.901,3.217,7.73,-3.43,1.00736,0,100.0,0.0,1.0,0.0,0.0,1.0,1,100.0,10.3,0.0,1,1.0,0,1.0,0,1.0,0,1.0,0,1.0
1043,'2',9.901,3.217,7.73,-3.43,1.00736,0,100.0,0.0,1.0,0.0,0.0,1.0,1,100.0,10.3,0.0,1,1.0,0,1.0,0,1.0,0,1.0,0,1.0
1044,'1',113.358,70.4,70.4,-37.9,1.0615,0,100.0,0.0,1.0,0.0,0.0,1.0,1,100.0,113.6,30.0,1,1.0,0,1.0,0,1.0,0,1.0,0,1.0
1044,'2',0.0,0.0,37.2,-20.0,1.0615,0,100.0,0.0,1.0,0.0,0.0,1.0,0,100.0,60.0,25.0,1,1.0,0,1.0,0,1.0,0,1.0,0,1.0
1045,'1',57.8,19.465,35.9,-19.3,1.07554,0,100.0,0.0,1.0,0.0,0.0,1.0,1,100.0,57.9,32.0,1,1.0,0,1.0,0,1.0,0,1.0,0,1.0
...
0 / END OF GENERATOR DATA BEGIN BRANCH DATA
896,915,'1',2e-06,1.5e-05,0.0,200.0,200.0,200.0,0.0,0.0,0.0,0.0,0,1,0.0,1,1.0,0,1.0,0,1.0,0,1.0
936,965,'1',2e-06,1.5e-05,0.0,200.0,200.0,200.0,0.0,0.0,0.0,0.0,0,1,0.0,1,1.0,0,1.0,0,1.0,0,1.0
1048,1084,'1',2e-06,1.5e-05,0.0,200.0,200.0,200.0,0.0,0.0,0.0,0.0,0,1,0.0,1,1.0,0,1.0,0,1.0,0,1.0
1049,1085,'1',2e-06,1.5e-05,0.0,200.0,200.0,200.0,0.0,0.0,0.0,0.0,1,1,0.0,1,1.0,0,1.0,0,1.0,0,1.0
1052,1133,'1',2e-06,1.5e-05,0.0,200.0,200.0,200.0,0.0,0.0,0.0,0.0,0,1,0.0,1,1.0,0,1.0,0,1.0,0,1.0
1085,1102,'1',2e-06,1.5e-05,0.0,200.0,200.0,200.0,0.0,0.0,0.0,0.0,1,1,0.0,1,1.0,0,1.0,0,1.0,0,1.0
1086,1133,'1',2e-06,1.5e-05,0.0,200.0,200.0,200.0,0.0,0.0,0.0,0.0,1,1,0.0,1,1.0,0,1.0,0,1.0,0,1.0
1206,1214,'1',2e-06,1.5e-05,0.0,200.0,200.0,200.0,0.0,0.0,0.0,0.0,0,1,0.0,1,1.0,0,1.0,0,1.0,0,1.0
1229,1353,'1',0.008988,0.02157,0.00031,55.0,37.0,75.0,0.0,0.0,0.0,0.0,1,1,1.28,1,1.0,0,1.0,0,1.0,0,1.0
1229,1666,'1',0.016558,0.03974,0.00051,55.0,24.0,75.0,0.0,0.0,0.0,0.0,1,1,2.22,1,1.0,0,1.0,0,1.0,0,1.0
1229,1669,'1',0.01119,0.04958,0.00149,103.0,103.0,113.3,0.0,0.0,0.0,0.0,1,1,4.25,1,1.0,0,1.0,0,1.0,0,1.0
1229,1818,'1',0.05788,0.14879,0.0023,59.0,59.0,64.9,0.0,0.0,0.0,0.0,1,1,9.14,1,1.0,0,1.0,0,1.0,0,1.0
1230,1515,'1',0.00457,0.02567,0.00048,103.0,103.0,113.3,0.0,0.0,0.0,0.0,1,1,1.73,1,1.0,0,1.0,0,1.0,0,1.0
1230,1519,'1',0.00719,0.01848,0.00029,59.0,59.0,64.9,0.0,0.0,0.0,0.0,1,1,1.14,1,1.0,0,1.0,0,1.0,0,1.0
1231,1648,'1',0.004825,0.01158,0.00022,55.0,24.0,75.0,0.0,0.0,0.0,0.0,1,1,0.79,1,1.0,0,1.0,0,1.0,0,1.0
1231,1650,'1',0.00371,0.01297,0.00027,80.0,80.0,88.0,0.0,0.0,0.0,0.0,1,1,0.92,1,1.0,0,1.0,0,1.0,0,1.0
1232,1542,'1',0.00459,0.01181,0.00018,59.0,59.0,64.9,0.0,0.0,0.0,0.0,1,1,0.72,1,1.0,0,1.0,0,1.0,0,1.0
1232,1543,'1',0.012458,0.0299,0.00049,55.0,35.0,75.0,0.0,0.0,0.0,0.0,1,1,1.89,1,1.0,0,1.0,0,1.0,0,1.0
1233,1519,'1',0.00319,0.01558,0.00033,96.0,96.0,105.6,0.0,0.0,0.0,0.0,1,1,1.12,1,1.0,0,1.0,0,1.0,0,1.0
1233,1888,'1',0.00521,0.01339,0.00021,59.0,59.0,64.9,0.0,0.0,0.0,0.0,1,1,0.83,1,1.0,0,1.0,0,1.0,0,1.0
1235,1236,'1',0.021646,0.05195,0.00076,55.0,24.0,75.0,0.0,0.0,0.0,0.0,1,1,3.1,1,1.0,0,1.0,0,1.0,0,1.0
1236,1238,'1',0.01107,0.02845,0.00044,59.0,59.0,64.9,0.0,0.0,0.0,0.0,1,1,1.75,1,1.0,0,1.0,0,1.0,0,1.0
1237,1242,'1',0.014846,0.03563,0.00048,55.0,30.0,75.0,0.0,0.0,0.0,0.0,1,1,2.04,1,1.0,0,1.0,0,1.0,0,1.0
1237,1251,'1',0.010958,0.0263,0.00041,55.0,35.0,75.0,0.0,0.0,0.0,0.0,1,1,1.62,1,1.0,0,1.0,0,1.0,0,1.0
1239,1240,'1',0.008683,0.02084,0.00026,55.0,24.0,75.0,0.0,0.0,0.0,0.0,1,1,1.15,1,1.0,0,1.0,0,1.0,0,1.0
1240,1247,'1',0.009554,0.02293,0.00029,55.0,24.0,75.0,0.0,0.0,0.0,0.0,1,1,1.27,1,1.0,0,1.0,0,1.0,0,1.0
1240,1786,'1',0.00755,0.01942,0.0003,59.0,59.0,64.9,0.0,0.0,0.0,0.0,1,1,1.19,1,1.0,0,1.0,0,1.0,0,1.0
1242,1243,'1',0.010446,0.02507,0.00035,55.0,33.0,75.0,0.0,0.0,0.0,0.0,1,1,1.46,1,1.0,0,1.0,0,1.0,0,1.0
1243,1259,'1',0.006292,0.0151,0.00024,55.0,24.0,75.0,0.0,0.0,0.0,0.0,1,1,0.94,1,1.0,0,1.0,0,1.0,0,1.0
1248,1250,'1',0.01665,0.03996,0.00076,55.0,24.0,75.0,0.0,0.0,0.0,0.0,1,1,2.72,1,1.0,0,1.0,0,1.0,0,1.0
1249,1252,'1',0.00616,0.05739,0.00111,141.0,141.0,155.1,0.0,0.0,0.0,0.0,1,1,3.94,1,1.0,0,1.0,0,1.0,0,1.0
1250,1253,'1',0.011383,0.02732,0.00036,55.0,28.0,75.0,0.0,0.0,0.0,0.0,1,1,1.55,1,1.0,0,1.0,0,1.0,0,1.0
1251,1258,'1',0.0105,0.0252,0.00047,55.0,41.0,75.0,0.0,0.0,0.0,0.0,1,1,1.7,1,1.0,0,1.0,0,1.0,0,1.0
1252,1254,'1',0.00367,0.01128,0.00021,71.0,71.0,78.1,0.0,0.0,0.0,0.0,1,1,0.76,1,1.0,0,1.0,0,1.0,0,1.0
1252,1258,'1',0.00668,0.02559,0.00072,92.0,92.0,101.2,0.0,0.0,0.0,0.0,1,1,2.12,1,1.0,0,1.0,0,1.0,0,1.0
1253,1788,'1',0.006608,0.01586,0.00024,57.0,57.0,62.7,0.0,0.0,0.0,0.0,1,1,0.96,1,1.0,0,1.0,0,1.0,0,1.0
1254,1788,'1',0.00674,0.01733,0.00027,59.0,59.0,64.9,0.0,0.0,0.0,0.0,1,1,1.07,1,1.0,0,1.0,0,1.0,0,1.0
1255,1256,'1',0.005975,0.01434,0.00018,55.0,24.0,75.0,0.0,0.0,0.0,0.0,1,1,0.79,1,1.0,0,1.0,0,1.0,0,1.0
1256,1272,'1',0.00807,0.02074,0.00032,59.0,59.0,64.9,0.0,0.0,0.0,0.0,1,1,1.27,1,1.0,0,1.0,0,1.0,0,1.0
1256,1789,'1',0.0044,0.01694,0.00029,80.0,80.0,88.0,0.0,0.0,0.0,0.0,1,1,1.1,1,1.0,0,1.0,0,1.0,0,1.0
1257,1789,'1',0.005825,0.01398,0.00022,55.0,28.0,75.0,0.0,0.0,0.0,0.0,1,1,0.87,1,1.0,0,1.0,0,1.0,0,1.0
1258,1789,'1',0.00337,0.01124,0.00018,71.0,71.0,78.1,0.0,0.0,0.0,0.0,1,1,0.7,1,1.0,0,1.0,0,1.0,0,1.0
1259,1260,'1',0.003083,0.0074,0.00018,59.0,59.0,64.9,0.0,0.0,0.0,0.0,1,1,0.57,1,1.0,0,1.0,0,1.0,0,1.0
1261,1263,'1',0.005858,0.01406,0.00026,57.0,57.0,62.7,0.0,0.0,0.0,0.0,1,1,0.94,1,1.0,0,1.0,0,1.0,0,1.0
1263,1265,'1',0.004717,0.01132,0.00017,55.0,41.0,75.0,0.0,0.0,0.0,0.0,1,1,0.69,1,1.0,0,1.0,0,1.0,0,1.0
1263,1271,'1',0.00896,0.02303,0.00036,59.0,59.0,64.9,0.0,0.0,0.0,0.0,1,1,1.42,1,1.0,0,1.0,0,1.0,0,1.0
1264,1265,'1',0.002492,0.00598,0.00013,55.0,33.0,75.0,0.0,0.0,0.0,0.0,1,1,0.44,1,1.0,0,1.0,0,1.0,0,1.0
1264,1266,'1',0.005808,0.01394,0.0002,55.0,39.0,75.0,0.0,0.0,0.0,0.0,1,1,0.83,1,1.0,0,1.0,0,1.0,0,1.0
1266,1267,'1',0.004558,0.01094,0.00016,57.0,57.0,62.7,0.0,0.0,0.0,0.0,1,1,0.65,1,1.0,0,1.0,0,1.0,0,1.0
1266,1268,'1',0.007471,0.01793,0.00027,55.0,24.0,75.0,0.0,0.0,0.0,0.0,1,1,1.09,1,1.0,0,1.0,0,1.0,0,1.0
1267,1790,'1',0.005025,0.01206,0.00028,55.0,41.0,75.0,0.0,0.0,0.0,0.0,1,1,0.91,1,1.0,0,1.0,0,1.0,0,1.0
1269,1270,'1',0.00667,0.02565,0.00044,80.0,80.0,88.0,0.0,0.0,0.0,0.0,1,1,1.66,1,1.0,0,1.0,0,1.0,0,1.0
1269,1793,'1',0.00467,0.02873,0.00052,110.0,110.0,121.0,0.0,0.0,0.0,0.0,1,1,1.91,1,1.0,0,1.0,0,1.0,0,1.0
1270,1271,'1',0.0054,0.01801,0.00029,71.0,71.0,78.1,0.0,0.0,0.0,0.0,1,1,1.13,1,1.0,0,1.0,0,1.0,0,1.0
1273,1792,'1',0.00311,0.0175,0.00038,110.0,110.0,121.0,0.0,0.0,0.0,0.0,1,1,1.27,1,1.0,0,1.0,0,1.0,0,1.0
1274,1275,'1',0.015038,0.03609,0.00057,55.0,24.0,75.0,0.0,0.0,0.0,0.0,1,1,2.24,1,1.0,0,1.0,0,1.0,0,1.0
1276,1277,'1',0.008108,0.01946,0.00044,59.0,59.0,64.9,0.0,0.0,0.0,0.0,1,1,1.45,1,1.0,0,1.0,0,1.0,0,1.0
1276,1294,'1',0.0117,0.02808,0.00069,59.0,59.0,64.9,0.0,0.0,0.0,0.0,1,1,2.18,1,1.0,0,1.0,0,1.0,0,1.0
1276,1798,'1',0.008279,0.01987,0.00038,55.0,24.0,75.0,0.0,0.0,0.0,0.0,1,1,1.36,1,1.0,0,1.0,0,1.0,0,1.0
1277,1278,'1',0.007633,0.01832,0.00024,55.0,30.0,75.0,0.0,0.0,0.0,0.0,1,1,1.04,1,1.0,0,1.0,0,1.0,0,1.0
1277,1284,'1',0.008254,0.01981,0.00029,55.0,24.0,75.0,0.0,0.0,0.0,0.0,1,1,1.18,1,1.0,0,1.0,0,1.0,0,1.0
1277,1295,'1',0.020983,0.05036,0.00078,55.0,28.0,75.0,0.0,0.0,0.0,0.0,1,1,3.1,1,1.0,0,1.0,0,1.0,0,1.0
1277,1799,'1',0.023042,0.0553,0.00095,55.0,41.0,75.0,0.0,0.0,0.0,0.0,1,1,3.58,1,1.0,0,1.0,0,1.0,0,1.0
1278,1283,'1',0.005508,0.01322,0.00017,55.0,24.0,75.0,0.0,0.0,0.0,0.0,1,1,0.74,1,1.0,0,1.0,0,1.0,0,1.0
1279,1280,'1',0.007312,0.01755,0.00024,55.0,24.0,75.0,0.0,0.0,0.0,0.0,1,1,1.01,1,1.0,0,1.0,0,1.0,0,1.0
1280,1283,'1',0.008996,0.02159,0.00028,55.0,24.0,75.0,0.0,0.0,0.0,0.0,1,1,1.21,1,1.0,0,1.0,0,1.0,0,1.0
1281,1795,'1',0.005483,0.01316,0.00021,55.0,24.0,75.0,0.0,0.0,0.0,0.0,1,1,0.82,1,1.0,0,1.0,0,1.0,0,1.0
1282,1283,'1',0.004721,0.01133,0.00014,55.0,24.0,75.0,0.0,0.0,0.0,0.0,1,1,0.62,1,1.0,0,1.0,0,1.0,0,1.0
1282,1795,'1',0.004875,0.0117,0.00016,55.0,30.0,75.0,0.0,0.0,0.0,0.0,1,1,0.68,1,1.0,0,1.0,0,1.0,0,1.0
1283,1794,'1',0.006467,0.01552,0.00022,55.0,35.0,75.0,0.0,0.0,0.0,0.0,1,1,0.91,1,1.0,0,1.0,0,1.0,0,1.0
1284,1800,'1',0.006029,0.01447,0.00019,55.0,24.0,75.0,0.0,0.0,0.0,0.0,1,1,0.82,1,1.0,0,1.0,0,1.0,0,1.0
1285,1794,'1',0.0044,0.01056,0.00013,55.0,24.0,75.0,0.0,0.0,0.0,0.0,1,1,0.58,1,1.0,0,1.0,0,1.0,0,1.0
1286,1287,'1',0.006971,0.01673,0.00021,55.0,24.0,75.0,0.0,0.0,0.0,0.0,1,1,0.93,1,1.0,0,1.0,0,1.0,0,1.0
1287,1288,'1',0.002833,0.0068,0.00013,55.0,24.0,75.0,0.0,0.0,0.0,0.0,1,1,0.46,1,1.0,0,1.0,0,1.0,0,1.0
1288,1796,'1',0.004704,0.01129,0.00015,55.0,30.0,75.0,0.0,0.0,0.0,0.0,1,1,0.64,1,1.0,0,1.0,0,1.0,0,1.0
1289,1290,'1',0.004042,0.0097,0.00014,55.0,41.0,75.0,0.0,0.0,0.0,0.0,1,1,0.58,1,1.0,0,1.0,0,1.0,0,1.0
1290,1291,'1',0.008137,0.01953,0.0003,55.0,24.0,75.0,0.0,0.0,0.0,0.0,1,1,1.2,1,1.0,0,1.0,0,1.0,0,1.0
1292,1293,'1',0.012125,0.0291,0.00037,55.0,24.0,75.0,0.0,0.0,0.0,0.0,1,1,1.62,1,1.0,0,1.0,0,1.0,0,1.0
1293,1294,'1',0.0144,0.03701,0.00057,59.0,59.0,64.9,0.0,0.0,0.0,0.0,1,1,2.27,1,1.0,0,1.0,0,1.0,0,1.0
1296,1297,'1',0.00702,0.01805,0.00028,59.0,59.0,64.9,0.0,0.0,0.0,0.0,1,1,1.11,1,1.0,0,1.0,0,1.0,0,1.0
1296,1811,'1',0.00525,0.0135,0.00021,59.0,59.0,64.9,0.0,0.0,0.0,0.0,1,1,0.83,1,1.0,0,1.0,0,1.0,0,1.0
1297,1298,'1',0.009417,0.0226,0.0003,55.0,30.0,75.0,0.0,0.0,0.0,0.0,1,1,1.29,1,1.0,0,1.0,0,1.0,0,1.0
1298,1334,'1',0.020625,0.0495,0.00087,55.0,24.0,75.0,0.0,0.0,0.0,0.0,1,1,3.24,1,1.0,0,1.0,0,1.0,0,1.0
1299,1303,'1',0.006242,0.01498,0.00019,55.0,24.0,75.0,0.0,0.0,0.0,0.0,1,1,0.83,1,1.0,0,1.0,0,1.0,0,1.0
1300,1803,'1',0.006617,0.01588,0.0002,55.0,24.0,75.0,0.0,0.0,0.0,0.0,1,1,0.88,1,1.0,0,1.0,0,1.0,0,1.0
1301,1809,'1',0.005729,0.01375,0.00019,55.0,30.0,75.0,0.0,0.0,0.0,0.0,1,1,0.8,1,1.0,0,1.0,0,1.0,0,1.0
1302,1809,'1',0.005854,0.01405,0.00018,55.0,24.0,75.0,0.0,0.0,0.0,0.0,1,1,0.79,1,1.0,0,1.0,0,1.0,0,1.0
1303,1304,'1',0.005821,0.01397,0.00018,55.0,24.0,75.0,0.0,0.0,0.0,0.0,1,1,0.78,1,1.0,0,1.0,0,1.0,0,1.0
1303,1804,'1',0.007267,0.01744,0.00024,55.0,35.0,75.0,0.0,0.0,0.0,0.0,1,1,1.01,1,1.0,0,1.0,0,1.0,0,1.0
1307,1806,'1',0.003675,0.00882,0.00011,55.0,24.0,75.0,0.0,0.0,0.0,0.0,1,1,0.49,1,1.0,0,1.0,0,1.0,0,1.0
1310,1829,'1',0.003413,0.00819,0.0001,55.0,24.0,75.0,0.0,0.0,0.0,0.0,1,1,0.45,1,1.0,0,1.0,0,1.0,0,1.0
1311,1812,'1',0.004658,0.01118,0.0002,55.0,37.0,75.0,0.0,0.0,0.0,0.0,1,1,0.74,1,1.0,0,1.0,0,1.0,0,1.0
1312,1313,'1',0.004271,0.01025,0.00019,59.0,59.0,64.9,0.0,0.0,0.0,0.0,1,1,0.69,1,1.0,0,1.0,0,1.0,0,1.0
1312,1330,'1',0.01066,0.0274,0.00042,59.0,59.0,64.9,0.0,0.0,0.0,0.0,1,1,1.68,1,1.0,0,1.0,0,1.0,0,1.0
1312,1812,'1',0.0075,0.01862,0.00031,59.0,59.0,64.9,0.0,0.0,0.0,0.0,1,1,1.19,1,1.0,0,1.0,0,1.0,0,1.0
1313,1812,'1',0.00336,0.00864,0.00013,59.0,59.0,64.9,0.0,0.0,0.0,0.0,1,1,0.52,1,1.0,0,1.0,0,1.0,0,1.0
1314,1315,'1',0.00101,0.00727,0.00024,141.0,141.0,155.1,0.0,0.0,0.0,0.0,1,1,0.65,1,1.0,0,1.0,0,1.0,0,1.0
1315,1327,'1',0.00313,0.0112,0.00022,80.0,80.0,88.0,0.0,0.0,0.0,0.0,1,1,0.78,1,1.0,0,1.0,0,1.0,0,1.0
1315,1327,'2',0.00313,0.0112,0.00022,80.0,80.0,88.0,0.0,0.0,0.0,0.0,1,1,0.78,1,1.0,0,1.0,0,1.0,0,1.0
1315,1332,'1',0.0097,0.03202,0.00052,71.0,71.0,78.1,0.0,0.0,0.0,0.0,1,1,2.02,1,1.0,0,1.0,0,1.0,0,1.0
1315,1813,'1',0.00378,0.01964,0.00043,103.0,103.0,113.3,0.0,0.0,0.0,0.0,1,1,1.44,1,1.0,0,1.0,0,1.0,0,1.0
1316,1317,'1',0.00169,0.00564,9e-05,71.0,71.0,78.1,0.0,0.0,0.0,0.0,0,1,0.35,1,1.0,0,1.0,0,1.0,0,1.0
1316,1323,'1',0.0028,0.00804,0.00012,64.0,64.0,70.4,0.0,0.0,0.0,0.0,1,1,0.49,1,1.0,0,1.0,0,1.0,0,1.0
1317,1813,'1',0.00171,0.00569,9e-05,71.0,71.0,78.1,0.0,0.0,0.0,0.0,1,1,0.35,1,1.0,0,1.0,0,1.0,0,1.0
1318,1319,'1',0.0013,0.00732,0.00014,103.0,103.0,113.3,0.0,0.0,0.0,0.0,1,1,0.5,1,1.0,0,1.0,0,1.0,0,1.0
1318,1813,'1',0.00324,0.0158,0.00027,92.0,92.0,101.2,0.0,0.0,0.0,0.0,1,1,1.02,1,1.0,0,1.0,0,1.0,0,1.0
1319,1320,'1',0.002112,0.00507,0.0001,55.0,24.0,75.0,0.0,0.0,0.0,0.0,1,1,0.35,1,1.0,0,1.0,0,1.0,0,1.0
1319,1814,'1',0.00105,0.00723,0.00013,115.0,115.0,126.5,0.0,0.0,0.0,0.0,1,1,0.48,1,1.0,0,1.0,0,1.0,0,1.0
1321,1814,'1',0.003754,0.00901,0.00011,55.0,24.0,75.0,0.0,0.0,0.0,0.0,1,1,0.49,1,1.0,0,1.0,0,1.0,0,1.0
1323,1324,'1',0.004229,0.01015,0.00018,55.0,24.0,75.0,0.0,0.0,0.0,0.0,1,1,0.67,1,1.0,0,1.0,0,1.0,0,1.0
1323,1326,'1',0.00287,0.01025,0.0002,80.0,80.0,88.0,0.0,0.0,0.0,0.0,1,1,0.71,1,1.0,0,1.0,0,1.0,0,1.0
1323,1326,'2',0.00287,0.01025,0.0002,80.0,80.0,88.0,0.0,0.0,0.0,0.0,1,1,0.71,1,1.0,0,1.0,0,1.0,0,1.0
1325,1326,'1',0.00341,0.0152,0.00026,88.0,88.0,96.8,0.0,0.0,0.0,0.0,1,1,0.98,1,1.0,0,1.0,0,1.0,0,1.0
1325,1599,'1',0.007037,0.01689,0.00032,55.0,24.0,75.0,0.0,0.0,0.0,0.0,1,1,1.15,1,1.0,0,1.0,0,1.0,0,1.0
1327,1328,'1',0.00335,0.01289,0.00022,80.0,80.0,88.0,0.0,0.0,0.0,0.0,1,1,0.83,1,1.0,0,1.0,0,1.0,0,1.0
1327,1329,'1',0.01168,0.03349,0.00052,64.0,64.0,70.4,0.0,0.0,0.0,0.0,1,1,2.06,1,1.0,0,1.0,0,1.0,0,1.0
1330,1818,'1',0.01711,0.0714,0.00206,96.0,96.0,105.6,0.0,0.0,0.0,0.0,1,1,5.99,1,1.0,0,1.0,0,1.0,0,1.0
1331,1332,'1',0.013546,0.03251,0.00051,55.0,30.0,75.0,0.0,0.0,0.0,0.0,1,1,2.01,1,1.0,0,1.0,0,1.0,0,1.0
1332,1333,'1',0.00995,0.02388,0.00035,55.0,24.0,75.0,0.0,0.0,0.0,0.0,1,1,1.43,1,1.0,0,1.0,0,1.0,0,1.0
1336,1823,'1',0.010367,0.02488,0.00035,55.0,35.0,75.0,0.0,0.0,0.0,0.0,1,1,1.46,1,1.0,0,1.0,0,1.0,0,1.0
1337,1355,'1',0.015258,0.03662,0.0009,59.0,59.0,64.9,0.0,0.0,0.0,0.0,1,1,2.84,1,1.0,0,1.0,0,1.0,0,1.0
1337,1825,'1',0.00585,0.02576,0.00045,88.0,88.0,96.8,0.0,0.0,0.0,0.0,1,1,1.68,1,1.0,0,1.0,0,1.0,0,1.0
1338,1340,'1',0.020613,0.04947,0.00068,55.0,24.0,75.0,0.0,0.0,0.0,0.0,1,1,2.87,1,1.0,0,1.0,0,1.0,0,1.0
1339,1340,'1',0.016967,0.04072,0.00061,55.0,35.0,75.0,0.0,0.0,0.0,0.0,1,1,2.46,1,1.0,0,1.0,0,1.0,0,1.0
1339,1514,'1',0.024692,0.05926,0.00075,55.0,24.0,75.0,0.0,0.0,0.0,0.0,1,1,3.29,1,1.0,0,1.0,0,1.0,0,1.0
...